30   
torsion grid (-165,)
C       -0.6853175063   -0.7228443399    7.8773622985
C        6.0060463620   -1.2824595234    0.7882797880
C       -1.2491385313   -0.8849399232    6.6066430738
C        0.6649479964   -1.0141429025    8.0901931607
C        6.2950241285   -2.4975626248    1.4203379937
C        5.3625554381   -0.2520627481    1.4829784622
C       -0.4657442121   -1.3394446922    5.5452968966
C        1.4668868109   -1.4697774172    7.0396490421
C        5.9426064592   -2.6920971272    2.7563874807
C        4.9903377732   -0.4310047679    2.8155843747
C        0.8818863552   -1.6334598304    5.7835203548
C        5.2894970201   -1.6517543044    3.4258442670
N        3.2931916964   -2.8232393961    5.1355975961
O        1.1591814212   -3.2105722554    3.6497545139
O        2.2070869688   -0.9030002377    3.5928667932
O        5.7757235916   -2.8223255299    5.7441650812
O        4.4167279055   -0.6525148714    5.7515897130
F        3.5370319519   -4.0527295358    4.4916711779
S        1.8170533219   -2.1038442064    4.3288341075
S        4.8340963306   -1.9021937039    5.1245308495
H       -1.2997622290   -0.3698674365    8.7010466775
H        6.2863973785   -1.1374031896   -0.2515673597
H       -2.2983582545   -0.6592818189    6.4393283294
H        1.1034340525   -0.8874229950    9.0757723868
H        6.7990083223   -3.2911211744    0.8764916787
H        5.1432200919    0.6887568469    0.9867512561
H       -0.8975882842   -1.4778369929    4.5587042004
H        2.5140261167   -1.6875450713    7.2029030941
H        6.1723486536   -3.6182636948    3.2721854669
H        4.4789681586    0.3459211394    3.3714136544
30   
torsion grid (-150,)
C       -0.7977008972   -0.8175761859    7.9111906584
C        5.9785758199   -1.3201931372    0.8051636109
C       -1.3656430069   -1.1671029746    6.6818274708
C        0.5916336288   -0.8364409718    8.0777658992
C        6.1639860970   -2.5761619082    1.3945559174
C        5.4590445323   -0.2547587493    1.5491305095
C       -0.5498379284   -1.5449101697    5.6127895369
C        1.4255914019   -1.2058907822    7.0205971764
C        5.8313029848   -2.7751853566    2.7351951015
C        5.1081330628   -0.4370197704    2.8871887154
C        0.8333828427   -1.5747207668    5.8103311293
C        5.3026792795   -1.6984887258    3.4551765841
N        3.2449939711   -2.7361264318    5.1791416179
O        1.1841674097   -2.8935437310    3.5202303368
O        2.3190735187   -0.6375775479    3.8117965714
O        5.7305140893   -2.9845119366    5.7238307740
O        4.5863129366   -0.6975952016    5.8334882898
F        3.3769100802   -3.9946185932    4.5579126970
S        1.8326450699   -1.8999134075    4.3631379628
S        4.8657854309   -1.9603548203    5.1579622138
H       -1.4378882035   -0.5283651456    8.7401728215
H        6.2423099722   -1.1710218810   -0.2384581901
H       -2.4437756558   -1.1480467312    6.5515097125
H        1.0316514955   -0.5606193865    9.0316852116
H        6.5716076057   -3.3985164455    0.8139196951
H        5.3193537704    0.7178562069    1.0865198751
H       -0.9768943794   -1.8331635932    4.6572779591
H        2.5032717722   -1.2049127676    7.1382926809
H        5.9826218928   -3.7351071750    3.2171006421
H        4.6906758626    0.3685324613    3.4794458691
30   
torsion grid (-135,)
C       -0.8127669314   -0.8980878533    7.9222913069
C        5.9970995243   -1.3293110619    0.8332667320
C       -1.3959376252   -1.4329697368    6.7697423897
C        0.5717280043   -0.6969068768    7.9891622017
C        6.1127827849   -2.6212635409    1.3592726966
C        5.5138546422   -0.2790934235    1.6219425861
C       -0.5976352516   -1.7777947272    5.6752776687
C        1.3849696064   -1.0271018420    6.9045541055
C        5.7461716519   -2.8731606397    2.6820526079
C        5.1301277837   -0.5132175822    2.9427889668
C        0.7808959211   -1.5803330571    5.7718957527
C        5.2549562158   -1.8101132629    3.4471461507
N        3.1233869154   -2.8398295463    5.0846243412
O        1.0594708534   -2.8047461575    3.4220743075
O        2.3150816332   -0.6246191272    3.8200341889
O        5.5875413452   -3.2227309048    5.6556993073
O        4.5466611286   -0.8935818783    5.8590586568
F        3.2139257699   -4.0543516808    4.3730035704
S        1.7567691887   -1.8833420722    4.3068156315
S        4.7764649479   -2.1361955358    5.1280772542
H       -1.4378051405   -0.6356312125    8.7715268068
H        6.2873360429   -1.1399019502   -0.1966969986
H       -2.4703354106   -1.5840356561    6.7186936097
H        1.0205973530   -0.2784844047    8.8853500128
H        6.4927846993   -3.4310656534    0.7433417291
H        5.4284227275    0.7213882150    1.2080402463
H       -1.0282014446   -2.2058304066    4.7757116865
H        2.4571737413   -0.8610060069    6.9393807985
H        5.8442229472   -3.8623562891    3.1161857583
H        4.7397154982    0.2798093526    3.5693863472
30   
torsion grid (-120,)
C       -0.7625579582   -0.8408280647    7.9649341751
C        6.0974060508   -1.2269707660    0.8902732523
C       -1.3377196856   -1.5348006784    6.8960307503
C        0.5773569830   -0.4362041676    7.9116088012
C        6.1705453804   -2.5366756988    1.3785732876
C        5.5961786065   -0.1953354385    1.6921499217
C       -0.5740047613   -1.8358594425    5.7648108445
C        1.3548161334   -0.7185102266    6.7880630617
C        5.7418391640   -2.8244466810    2.6750766512
C        5.1521773947   -0.4648661498    2.9871678062
C        0.7604583664   -1.4271397673    5.7398033089
C        5.2339844260   -1.7792118737    3.4538677683
N        3.0112071998   -2.7998879523    4.9642783458
O        0.9359354009   -2.5844523275    3.3487208998
O        2.3086423977   -0.4815302056    3.7920695444
O        5.4382982628   -3.2819828270    5.6180188487
O        4.4725928498   -0.9264664771    5.8721308429
F        3.0968126524   -3.9339493184    4.1269719491
S        1.6922498354   -1.7248970132    4.2470525259
S        4.6824074537   -2.1502057513    5.1036029975
H       -1.3598432606   -0.6132009245    8.8437175312
H        6.4351831481   -1.0092068621   -0.1194042783
H       -2.3783051724   -1.8431603538    6.9390824397
H        1.0188859900    0.1024708056    8.7450148891
H        6.5650983742   -3.3326090598    0.7537475204
H        5.5443970467    0.8193442287    1.3083600868
H       -0.9947420110   -2.3793362411    4.9251507827
H        2.3937330999   -0.4098782817    6.7310875620
H        5.8050728282   -3.8285539500    3.0802966076
H        4.7495973657    0.3151417435    3.6221727389
30   
torsion grid (-105,)
C       -0.6527133352   -0.8422160297    8.0063786596
C        6.2004323004   -1.2035539779    0.9824185721
C       -1.1961892967   -1.7046006239    7.0483110297
C        0.5981743943   -0.2480178825    7.8002666254
C        6.2194877444   -2.5346263516    1.4149686930
C        5.6876794777   -0.1941820878    1.8049227995
C       -0.4883206549   -1.9851660179    5.8772371020
C        1.3178425328   -0.5091767416    6.6334303261
C        5.7240626719   -2.8666471932    2.6764968419
C        5.1771900276   -0.5072475651    3.0651434976
C        0.7587264065   -1.3826797155    5.6969034838
C        5.2057183104   -1.8422887227    3.4760321202
N        2.8929470241   -2.8698274235    4.8282387286
O        0.8041333662   -2.5093427221    3.2865712020
O        2.2882890171   -0.4782963581    3.7165167465
O        5.2740340228   -3.4387096644    5.5802468201
O        4.3536231347   -1.0728746526    5.8933377583
F        2.9960934768   -3.9129790385    3.8792960153
S        1.6262663482   -1.6979193100    4.1718757065
S        4.5691935591   -2.2677103323    5.0819451854
H       -1.2064090167   -0.6309117176    8.9172242380
H        6.5898691808   -0.9516104574   -0.0003461559
H       -2.1696105127   -2.1586855376    7.2094984243
H        1.0154963270    0.4203380184    8.5477658741
H        6.6232032359   -3.3129293795    0.7739751910
H        5.6785983204    0.8369860571    1.4641224367
H       -0.8876126883   -2.6501310549    5.1185220565
H        2.2902753024   -0.0628000421    6.4589635621
H        5.7436086356   -3.8885415454    3.0394722965
H        4.7649950226    0.2553659794    3.7148481457
30   
torsion grid (-90,)
C       -0.4799871093   -0.7716040649    8.0428876636
C        6.3002277516   -1.0924042900    1.1413803170
C       -0.9724722855   -1.8080221234    7.2410744284
C        0.6262719782   -0.0191040273    7.6331437324
C        6.2842894829   -2.4484966199    1.4879314360
C        5.7330596898   -0.1341178250    1.9886904782
C       -0.3570263365   -2.1034606966    6.0237997925
C        1.2537379929   -0.2988704544    6.4181372919
C        5.6987652190   -2.8560176653    2.6871041141
C        5.1339391422   -0.5234917133    3.1871319706
C        0.7503964667   -1.3427093697    5.6387787854
C        5.1280741724   -1.8819536374    3.5131222640
N        2.7209041100   -2.9556216003    4.6418218793
O        0.5943604200   -2.4682842477    3.2306925791
O        2.1978906014   -0.5126863177    3.5667989914
O        5.0434529688   -3.6140352535    5.5056198523
O        4.1304879350   -1.2586406546    5.9160023416
F        2.8684240271   -3.8743752916    3.5748086930
S        1.5039550404   -1.6976368133    4.0656445927
S        4.3842172987   -2.4021425425    5.0436723502
H       -0.9625389231   -0.5481367545    8.9905644375
H        6.7596819780   -0.7810480349    0.2070768083
H       -1.8357247836   -2.3843422216    7.5608524042
H        1.0033603935    0.7844882076    8.2589176919
H        6.7303694157   -3.1874460664    0.8286963216
H        5.7513032128    0.9167889118    1.7151832631
H       -0.7246977474   -2.8969376168    5.3814594224
H        2.1138520144    0.2682501610    6.0833741451
H        5.6888438309   -3.8991809692    2.9839399186
H        4.6812578200    0.2002509368    3.8540308595
30   
torsion grid (-75,)
C       -0.3147853012   -0.7276402238    8.0545071317
C        6.3591089480   -1.0407122127    1.3125755664
C       -0.7040266413   -1.9005737842    7.3959266256
C        0.6026971390    0.1490192707    7.4656487608
C        6.2961415489   -2.4143301399    1.5745352361
C        5.7644025016   -0.1216506997    2.1840258920
C       -0.1769090956   -2.2044630752    6.1406766845
C        1.1441353681   -0.1414409465    6.2124293585
C        5.6359860553   -2.8792091242    2.7125148299
C        5.0908258303   -0.5683631800    3.3212952427
C        0.7390266776   -1.3141137489    5.5733689663
C        5.0395613274   -1.9431804134    3.5638047788
N        2.5519208562   -3.0229384424    4.4928615647
O        0.4205750754   -2.4170371492    3.1651101721
O        2.1271940028   -0.5432363780    3.4390310621
O        4.8106665966   -3.7849101025    5.4442191606
O        3.9212042312   -1.4349133359    5.9387878385
F        2.7351899840   -3.8508772577    3.3581273805
S        1.3977642821   -1.6945577738    3.9664604040
S        4.2021884335   -2.5336733795    5.0186592794
H       -0.7281076770   -0.4975669764    9.0328074885
H        6.8767758507   -0.6850451552    0.4257334518
H       -1.4168780718   -2.5769445098    7.8583870939
H        0.9033132896    1.0548639094    7.9838780961
H        6.7636749690   -3.1227326962    0.8968934522
H        5.8193236349    0.9430257895    1.9766572140
H       -0.4680398644   -3.1046948130    5.6092035002
H        1.8664016475    0.5146832900    5.7406949131
H        5.5880691734   -3.9378084892    2.9438528962
H        4.6173050087    0.1249328698    4.0059203943
30   
torsion grid (-60,)
C       -0.1895622136   -0.6974594715    8.0530263746
C        6.3983877618   -1.0242491505    1.4454899154
C       -0.4161965563   -1.9677318277    7.5087869343
C        0.5087007366    0.2734278796    7.3275369444
C        6.2904800797   -2.4079214413    1.6279614335
C        5.7981065507   -0.1377916546    2.3463585690
C        0.0502993842   -2.2748527328    6.2307801569
C        0.9910681028   -0.0194883009    6.0507584151
C        5.5787732423   -2.9157154075    2.7153669882
C        5.0737733256   -0.6270688093    3.4337686611
C        0.7414883117   -1.2870467033    5.5240355753
C        4.9780470814   -2.0112096105    3.5970292927
N        2.4273879670   -3.0595698810    4.3778144773
O        0.3189089615   -2.3255332685    3.0937772065
O        2.1102884065   -0.5383979960    3.3709711833
O        4.6265876416   -3.9479055139    5.3603595331
O        3.7897587978   -1.6010263947    5.9560162742
F        2.6191970468   -3.8271034801    3.2032822494
S        1.3411510037   -1.6661695190    3.8936740946
S        4.0730058807   -2.6553322244    4.9864548550
H       -0.5542756346   -0.4663811999    9.0501947052
H        6.9557552786   -0.6351977933    0.5975939136
H       -0.9526293599   -2.7195495906    8.0801723904
H        0.6881487293    1.2540411102    7.7585656474
H        6.7626665318   -3.0908710035    0.9278067996
H        5.8880607889    0.9346601154    2.2004007521
H       -0.1142205393   -3.2535412821    5.7921024249
H        1.5573580967    0.7061048178    5.4772143551
H        5.4944622944   -3.9836283656    2.8854981346
H        4.5949682237    0.0404215121    4.1401962233
30   
torsion grid (-45,)
C       -0.1608648438   -0.6852211531    8.0642809432
C        6.4404704525   -1.0497283426    1.5075956302
C       -0.1729098049   -2.0055993654    7.5994557156
C        0.3098126381    0.3503013292    7.2502906315
C        6.2806930279   -2.4348690367    1.6320951257
C        5.8577284485   -0.1795116892    2.4354253165
C        0.2795610551   -2.3010683591    6.3134834769
C        0.7774887758    0.0724929008    5.9645049691
C        5.5348048256   -2.9606165802    2.6875109342
C        5.1000693397   -0.6861884576    3.4918176409
C        0.7371522302   -1.2485491861    5.5158748648
C        4.9530464344   -2.0715330665    3.5972103918
N        2.3502246728   -3.0408240184    4.2979200825
O        0.2919191303   -2.1613146441    3.0291192123
O        2.1436560402   -0.4627706305    3.4024074285
O        4.4925679310   -4.0701981153    5.2646938977
O        3.7499454257   -1.7183448030    5.9585075435
F        2.5183052486   -3.7633028689    3.0937659172
S        1.3311151260   -1.5843582062    3.8704175944
S        4.0032952423   -2.7376534561    4.9447196111
H       -0.5118328962   -0.4645546338    9.0686609349
H        7.0243555288   -0.6471493272    0.6842086338
H       -0.5271333111   -2.8077653794    8.2402164996
H        0.3264189354    1.3717131992    7.6192708553
H        6.7392774367   -3.1054625256    0.9112745516
H        5.9874356886    0.8940548686    2.3347387046
H        0.2838894985   -3.3196340328    5.9414194347
H        1.1782097252    0.8539457540    5.3275109049
H        5.4098683767   -4.0308151295    2.8124819663
H        4.6334289890   -0.0311967356    4.2178842156
30   
torsion grid (-30,)
C       -0.2688312512   -0.6670136963    8.0594652119
C        6.4736649724   -1.0870822478    1.5403351474
C       -0.0299674764   -1.9932030391    7.6842038632
C       -0.0006912172    0.3789512077    7.1699603978
C        6.2463046666   -2.4674867650    1.5901465231
C        5.9420467815   -0.2414434090    2.5201914209
C        0.4705237614   -2.2876920018    6.4147940479
C        0.5118565340    0.1048761744    5.9008434245
C        5.4833900039   -3.0129575282    2.6231273379
C        5.1678883020   -0.7670403453    3.5551607803
C        0.7196966492   -1.2285379091    5.5384816883
C        4.9535273987   -2.1473680269    3.5858073395
N        2.3127407403   -3.0312326279    4.2653756185
O        0.3305700452   -1.9923362816    2.9880647433
O        2.2325165861   -0.4016177030    3.5187468734
O        4.4112612473   -4.2081322986    5.1496542018
O        3.7785780281   -1.8656424863    5.9719582060
F        2.4215700157   -3.7278716045    3.0419454622
S        1.3639182937   -1.5152063560    3.8968715766
S        3.9828201721   -2.8392738449    4.9041308507
H       -0.6555525174   -0.4474262987    9.0508429175
H        7.0705944854   -0.6689863522    0.7342160502
H       -0.2236503285   -2.8025138444    8.3821077041
H       -0.1760032139    1.4089489732    7.4668820655
H        6.6655770784   -3.1191232544    0.8291276786
H        6.1241967825    0.8283341037    2.4767557121
H        0.6646323564   -3.3107248797    6.1153564665
H        0.7592468150    0.9065389289    5.2125350510
H        5.3070807199   -4.0810546150    2.6912189591
H        4.7386262450   -0.1308327931    4.3200207641
30   
torsion grid (-15,)
C       -0.3701407648   -0.6471382644    8.0682092925
C        6.5047265792   -1.1047421505    1.5137699670
C        0.1145530675   -1.9267762016    7.7833688980
C       -0.2848852338    0.3692459333    7.1098502003
C        6.2012408336   -2.4711475252    1.4908786417
C        6.0543486126   -0.2919982275    2.5599607980
C        0.6815281374   -2.2081499128    6.5378126136
C        0.2882283679    0.1106284765    5.8644526795
C        5.4431667849   -3.0359246841    2.5170440757
C        5.2855903022   -0.8355123817    3.5895876509
C        0.7485258737   -1.1824522173    5.5932081152
C        4.9948797522   -2.2015127801    3.5464678051
N        2.3306437143   -2.9856305630    4.2611657454
O        0.4361589165   -1.7664524388    2.9905948776
O        2.3916815468   -0.3194854001    3.6927105678
O        4.3853522761   -4.3186072876    5.0074915686
O        3.8995653850   -1.9986979717    5.9797817034
F        2.3528722024   -3.6571307277    3.0210622285
S        1.4580990708   -1.4111187150    3.9654950261
S        4.0262885803   -2.9168253537    4.8526436520
H       -0.8084530739   -0.4384482280    9.0402642808
H        7.0974562355   -0.6719202221    0.7123319383
H        0.0592782399   -2.7120813811    8.5316015073
H       -0.6534030059    1.3661983148    7.3336529527
H        6.5576034714   -3.0973821781    0.6782432984
H        6.2951580041    0.7669236925    2.5724852362
H        1.0545520581   -3.1982978851    6.3090810655
H        0.3866709315    0.8996750914    5.1253231833
H        5.2088576096   -4.0949476738    2.5288861925
H        4.9166147921   -0.2241292731    4.4045220895
30   
torsion grid (0,)
C       -1.4408521456   -3.0271986009    6.7728606336
C        5.0741869847   -0.3936475172    0.4798006061
C       -0.1334551113   -3.1679022957    7.2458296865
C       -1.6879073980   -2.3501001864    5.5727152857
C        5.5705835525   -1.5457367340    1.1007251606
C        4.5600293595    0.6619985267    1.2407359863
C        0.9409635319   -2.6322714206    6.5286319376
C       -0.6287345931   -1.8137781237    4.8403467053
C        5.5541367106   -1.6529296120    2.4913566311
C        4.5293015301    0.5728380341    2.6328153882
C        0.6715803341   -1.9577129434    5.3370333285
C        5.0295267188   -0.5877688111    3.2293254169
N        3.3988031856   -1.6980054137    5.3002179764
O        2.0003910964   -1.9297108967    3.0283638177
O        1.9221852368    0.2101193976    4.3903166301
O        5.9674194149   -1.6618301897    5.4694925918
O        4.6661345421    0.5357093886    5.6216532508
F        3.6842672645   -3.0403194570    4.9324496329
S        1.9632353625   -1.2476771295    4.3175508711
S        4.9419285916   -0.7457082072    4.9962515672
H       -2.2690732719   -3.4455737729    7.3381170048
H        5.0879888081   -0.3188434268   -0.6042231866
H        0.0578078909   -3.6946616729    8.1762916440
H       -2.7037434806   -2.2416928650    5.2037756002
H        5.9691563560   -2.3604639878    0.5033433867
H        4.1762062771    1.5526381257    0.7519658710
H        1.9561348013   -2.7273419318    6.8942242812
H       -0.8113037923   -1.2961247707    3.9033253903
H        5.9359517754   -2.5339560590    2.9959809376
H        4.1171725668    1.3671149671    3.2449318209
30   
torsion grid (15,)
C       -1.4159929997   -3.0191192218    6.7773657223
C        5.0717245606   -0.3776990457    0.5227700301
C       -0.1469743868   -2.9625613707    7.3609781407
C       -1.6179722745   -2.5389716711    5.4781919413
C        5.5114651456   -1.5836714765    1.0809429889
C        4.6430048985    0.6730722294    1.3412004512
C        0.9318866453   -2.4195557284    6.6573517820
C       -0.5514817022   -2.0015791546    4.7565540640
C        5.5227632301   -1.7501459376    2.4657864556
C        4.6418138943    0.5258699694    2.7286841243
C        0.7056348986   -1.9370298052    5.3669156996
C        5.0836943429   -0.6881366372    3.2617198325
N        3.4308398497   -1.7767215270    5.3290993891
O        2.0048855335   -1.8168357154    3.0536835808
O        2.0519834133    0.2370108753    4.5463011318
O        6.0005327020   -1.9197467702    5.4291717718
O        4.8528756836    0.3502516901    5.7069626668
F        3.6184077670   -3.1276173153    4.9345956677
S        2.0148061072   -1.2137200284    4.3821466565
S        5.0272557903   -0.9187293491    5.0219849321
H       -2.2483285000   -3.4430303380    7.3324153773
H        5.0629823964   -0.2567700637   -0.5571510297
H        0.0103061625   -3.3446304272    8.3654934435
H       -2.6022707088   -2.5907642342    5.0217942402
H        5.8442045514   -2.3941615281    0.4391494001
H        4.3025623141    1.6056152603    0.9008207759
H        1.9196620042   -2.3669672714    7.0996965372
H       -0.6909373245   -1.6506760252    3.7386529035
H        5.8612588393   -2.6739797074    2.9225668912
H        4.2948758084    1.3163244764    3.3846516234
30   
torsion grid (30,)
C       -1.4199895647   -3.0242765323    6.7557555320
C        5.0336202822   -0.3208196905    0.5081385082
C       -0.2128876751   -2.7422987499    7.4044649548
C       -1.5650768752   -2.7683687002    5.3879308018
C        5.4194617414   -1.5721851071    1.0027365356
C        4.6718365391    0.7111209886    1.3810002201
C        0.8574741376   -2.1937879260    6.6946587809
C       -0.5028708186   -2.2288124531    4.6597146841
C        5.4437438007   -1.8029780916    2.3781489936
C        4.6846560186    0.4994246216    2.7600753954
C        0.6862621616   -1.9343024255    5.3325066303
C        5.0722783352   -0.7584628949    3.2296358681
N        3.4012011323   -1.8566479306    5.2784745569
O        1.9553540132   -1.7383521816    3.0100513255
O        2.0959355106    0.2364775261    4.6057622093
O        5.9643600307   -2.1273195402    5.3243491918
O        4.9279915486    0.1787047661    5.7201635698
F        3.5169103760   -3.2029051288    4.8452850118
S        1.9998689089   -1.2009244118    4.3658713381
S        5.0314027711   -1.0664822811    4.9784025779
H       -2.2469301637   -3.4522035323    7.3158432444
H        5.0146606645   -0.1494497151   -0.5647940914
H       -0.0987577679   -2.9551312427    8.4634264278
H       -2.4993916854   -2.9982354829    4.8839211386
H        5.7003432274   -2.3676961336    0.3187767106
H        4.3728262101    1.6791651773    0.9898896574
H        1.8005595249   -1.9746498329    7.1822643775
H       -0.5884082434   -2.0519238619    3.5923104266
H        5.7417406704   -2.7629059132    2.7862054183
H        4.3889482535    1.2749846589    3.4576437548
30   
torsion grid (45,)
C       -1.4232669348   -3.0214347701    6.7363758313
C        4.9859096863   -0.2125154572    0.4950933804
C       -0.3076215544   -2.5145949123    7.4142535549
C       -1.4902695585   -2.9695760312    5.3403948690
C        5.3324120718   -1.4996184524    0.9225181917
C        4.6727746203    0.7870854930    1.4226928751
C        0.7471379415   -1.9445546207    6.7006891391
C       -0.4399150252   -2.4094280983    4.6087910903
C        5.3653970985   -1.7984013353    2.2846590224
C        4.6960052285    0.5064994398    2.7893645507
C        0.6531197563   -1.8924683009    5.3068831272
C        5.0435088901   -0.7856005165    3.1926559098
N        3.3586429126   -1.9096046084    5.2163552989
O        1.8900172306   -1.5966061368    2.9780507679
O        2.1217959630    0.2697389402    4.6965210504
O        5.9101895193   -2.2915758863    5.2011051057
O        4.9760978638    0.0323756232    5.7282070985
F        3.4052176377   -3.2331934873    4.7071651146
S        1.9690107953   -1.1434409618    4.3627310601
S        5.0153318252   -1.1784817424    4.9250028326
H       -2.2397022802   -3.4655227636    7.2993477907
H        4.9598312870    0.0122452889   -0.5677870556
H       -0.2550960828   -2.5688817862    8.4977325133
H       -2.3533010910   -3.3728997911    4.8186088994
H        5.5761527665   -2.2698914671    0.1966544982
H        4.4040685256    1.7833688087    1.0839683998
H        1.6216005895   -1.5526667523    7.2090297296
H       -0.4579410530   -2.3806184361    3.5241390002
H        5.6340058379   -2.7872023755    2.6408652359
H        4.4381256843    1.2571826780    3.5280344571
30   
torsion grid (60,)
C       -1.4257371388   -3.0069171505    6.7715455501
C        4.9640287401   -0.1073675552    0.5508734175
C       -0.4328586844   -2.2796842066    7.4411569718
C       -1.3770701775   -3.1661001241    5.3830507780
C        5.2723759659   -1.4255726729    0.9066060953
C        4.6962958645    0.8517555829    1.5337974008
C        0.6140462710   -1.7017784035    6.7237297056
C       -0.3318028391   -2.5995273424    4.6483704984
C        5.3119620850   -1.7955597112    2.2509929518
C        4.7265976892    0.5014568032    2.8841092876
C        0.6369614925   -1.8673649776    5.3355558155
C        5.0351142523   -0.8210011449    3.2139759033
N        3.3370537337   -1.9879220132    5.2050686543
O        1.8578171090   -1.5100747909    3.0058643706
O        2.1743305458    0.2605265490    4.8178035423
O        5.8757107396   -2.4580788657    5.1282415594
O        5.0304631587   -0.1336544780    5.7882938323
F        3.3272846660   -3.2814028347    4.6210667310
S        1.9643444276   -1.1249265860    4.4091327674
S        5.0155755787   -1.3027238939    4.9241828752
H       -2.2381440755   -3.4550373438    7.3372061585
H        4.9324178868    0.1733955502   -0.4984706382
H       -0.4726441737   -2.1661829414    8.5205648309
H       -2.1471912862   -3.7354541134    4.8707691801
H        5.4814362877   -2.1646440449    0.1386950393
H        4.4572193313    1.8725724119    1.2504890172
H        1.3937228852   -1.1354465002    7.2230783721
H       -0.2616102058   -2.7184595453    3.5720632046
H        5.5516488657   -2.8097564737    2.5522478840
H        4.5034699466    1.2211134553    3.6639046933
30   
torsion grid (75,)
C       -1.4231592900   -2.9761336593    6.7948723035
C        4.9499784482   -0.0160036449    0.5789457724
C       -0.5678988541   -2.0618348468    7.4232651082
C       -1.2386107384   -3.3163545632    5.4506449279
C        5.2198432301   -1.3592125721    0.8657819653
C        4.7317934024    0.9038229426    1.6104558935
C        0.4801613916   -1.4801886055    6.7097473958
C       -0.1926098357   -2.7456730717    4.7210716215
C        5.2702722572   -1.7949292263    2.1900268292
C        4.7737987225    0.4871948628    2.9414407632
C        0.6429060561   -1.8330172145    5.3669043888
C        5.0430812951   -0.8589677532    3.2028684521
N        3.3392296161   -2.0587449579    5.1682716356
O        1.8411039526   -1.4119854480    3.0356779761
O        2.2457000543    0.2565732148    4.9297057436
O        5.8577802680   -2.6123226940    5.0230923264
O        5.1057086388   -0.2935101463    5.8054034090
F        3.2696069530   -3.3100049635    4.5003121130
S        1.9808542908   -1.0970349239    4.4533621854
S        5.0348494681   -1.4200949788    4.8890979657
H       -2.2369591938   -3.4257154579    7.3573865448
H        4.9096963301    0.3154551840   -0.4551900671
H       -0.7167491598   -1.8031582784    8.4675461620
H       -1.9055774774   -4.0260365753    4.9698493928
H        5.3905903941   -2.0668034007    0.0596722083
H        4.5226486454    1.9444554932    1.3805122024
H        1.1537589344   -0.7672702725    7.1746773920
H       -0.0254480037   -2.9915047961    3.6775649212
H        5.4809671641   -2.8297065555    2.4383302488
H        4.5889850098    1.1755556312    3.7586684827
30   
torsion grid (90,)
C       -1.4374320927   -2.9552482731    6.7931585586
C        4.9368394299    0.0615767819    0.5912978565
C       -0.7216040172   -1.8839041548    7.3405758302
C       -1.1009992762   -3.4653957850    5.5340601965
C        5.1746162602   -1.3005648733    0.8088091493
C        4.7616236590    0.9365205216    1.6690004063
C        0.3415373121   -1.3168991706    6.6356663685
C       -0.0434041738   -2.9087875155    4.8120120302
C        5.2355569320   -1.8007834329    2.1096001567
C        4.8149092650    0.4548069647    2.9774304844
C        0.6592819444   -1.8442421164    5.3814402620
C        5.0512712825   -0.9090312763    3.1698984868
N        3.3496485867   -2.1574136544    5.1076014514
O        1.8329469045   -1.3730176294    3.0461124256
O        2.3171376602    0.2064884118    4.9990031864
O        5.8492158684   -2.7691530480    4.8878229247
O        5.1752465414   -0.4718580659    5.7952386373
F        3.2329751158   -3.3649430870    4.3679068294
S        2.0052582836   -1.1178383820    4.4721337571
S        5.0570929740   -1.5503762861    4.8275406463
H       -2.2624923097   -3.3924139377    7.3490494390
H        4.8880424402    0.4432180276   -0.4250066463
H       -0.9907788387   -1.4891325484    8.3159282493
H       -1.6627049461   -4.2939911056    5.1126873710
H        5.3121913919   -1.9728089540   -0.0331048705
H        4.5773046638    1.9922341244    1.4927678370
H        0.9098446989   -0.4842026630    7.0374443624
H        0.2286633196   -3.2794839961    3.8293585012
H        5.4221611002   -2.8515035425    2.3044300863
H        4.6632075669    1.1078148570    3.8297171741
30   
torsion grid (105,)
C       -0.3853537711   -0.5934594771    7.8863467371
C        5.8284432806   -1.3779239365    0.7201748351
C       -0.0514591823    0.1166220157    6.7281727509
C       -0.0366663245   -1.9430455737    8.0209076645
C        6.5107179429   -2.1686878582    1.6521994736
C        4.7612165488   -0.5662533719    1.1201326874
C        0.6397433712   -0.5154548443    5.6933411220
C        0.6499934145   -2.5926187340    6.9950809034
C        6.1288399113   -2.1537067343    2.9940909417
C        4.3585632537   -0.5454877701    2.4558676860
C        0.9744854371   -1.8613615656    5.8488918673
C        5.0525985494   -1.3427432351    3.3692814768
N        3.4908274048   -2.7385177677    5.3266148926
O        1.4625878091   -4.1029741085    4.4882441120
O        1.8455902964   -1.8621104230    3.3348881798
O        5.7279874930   -1.6215642099    5.9076398480
O        3.6747217628   -0.1958869099    5.3542580752
F        4.1679193860   -3.8423548094    4.7521861488
S        1.8335458636   -2.6960727652    4.5350259398
S        4.5694767507   -1.3173993057    5.0816686012
H       -0.9189308175   -0.0931010367    8.6899579753
H        6.1323796353   -1.3927198033   -0.3230692092
H       -0.3217406498    1.1641052883    6.6322030778
H       -0.2995038362   -2.4888516937    8.9223143597
H        7.3413768719   -2.7931070203    1.3364067751
H        4.2379429380    0.0471820647    0.3925218696
H        0.9210958553    0.0157724836    4.7915075282
H        0.9253970620   -3.6392864264    7.0744152976
H        6.6521116864   -2.7464380707    3.7365982470
H        3.5311869324    0.0705581593    2.7866445784
30   
torsion grid (120,)
C       -0.3317082211   -0.5210455247    7.8125094367
C        5.8240815741   -1.2639599032    0.7838770172
C       -0.1970427492    0.0787426197    6.5560965677
C        0.1998814581   -1.7938893596    8.0544288672
C        6.4793347545   -2.1435142817    1.6536744644
C        4.7836458674   -0.4493868114    1.2439188733
C        0.4768642926   -0.5867369174    5.5304885715
C        0.8683813091   -2.4771224409    7.0387796971
C        6.0965102337   -2.2150831668    2.9935263959
C        4.3808109630   -0.5149874349    2.5780847298
C        0.9996717567   -1.8527739421    5.7954386327
C        5.0471918969   -1.3995639284    3.4295996338
N        3.4397492310   -2.8885555478    5.2775411282
O        1.3468464786   -4.1209245007    4.4202997580
O        1.8576855450   -1.9033686965    3.2791677360
O        5.7051369409   -1.8803668892    5.9436103503
O        3.6900580745   -0.3655493644    5.4875375016
F        4.0860778120   -3.9745216373    4.6383760838
S        1.7995179551   -2.7384174079    4.4774664703
S        4.5595283920   -1.4853810028    5.1383064762
H       -0.8514611327    0.0054542459    8.6083932281
H        6.1282840962   -1.2116722028   -0.2580732297
H       -0.6100435456    1.0668421128    6.3753317552
H        0.0929916432   -2.2543317661    9.0322123908
H        7.2894260269   -2.7696712206    1.2913356259
H        4.2813695941    0.2328568343    0.5643332746
H        0.6114068051   -0.1363620655    4.5531866283
H        1.2828442585   -3.4661241920    7.2047717511
H        6.5994888632   -2.8779226697    3.6893048538
H        3.5735349053    0.1014271512    2.9550959649
30   
torsion grid (135,)
C       -0.3456065159   -0.5169654279    7.8208810885
C        5.8750971408   -1.2398718282    0.8181608958
C       -0.4078065336   -0.0059663164    6.5205037929
C        0.3883337334   -1.6777061682    8.0937979641
C        6.4897252364   -2.1761357024    1.6579627576
C        4.8644055326   -0.4026191307    1.3031996293
C        0.2708562173   -0.6469771617    5.4819530142
C        1.0637221760   -2.3374053573    7.0671257353
C        6.0956180441   -2.2821644776    2.9921231296
C        4.4498168349   -0.5004714975    2.6318030286
C        1.0036621646   -1.7965991909    5.7797305991
C        5.0761400562   -1.4421375134    3.4521117380
N        3.3873965901   -2.9300361164    5.2238771902
O        1.2455441304   -4.0285069788    4.3122385225
O        1.8536215521   -1.7964387033    3.2616787024
O        5.6897263854   -2.0580512711    5.9479979687
O        3.7495153848   -0.4344669453    5.5433271024
F        3.9845348149   -4.0210831851    4.5504679073
S        1.7629287334   -2.6723835313    4.4285597706
S        4.5713993442   -1.5756482223    5.1518749228
H       -0.8696956660   -0.0090903215    8.6259148440
H        6.1877997707   -1.1612094316   -0.2196142857
H       -0.9800970846    0.8936611629    6.3135216773
H        0.4342379303   -2.0704788796    9.1053248117
H        7.2769839966   -2.8199076587    1.2766913286
H        4.3937098032    0.3232674035    0.6466704547
H        0.2533553700   -0.2580707900    4.4692866028
H        1.6340930244   -3.2393742901    7.2607132267
H        6.5671082600   -2.9897661151    3.6655948405
H        3.6642322601    0.1322277117    3.0273588589
30   
torsion grid (150,)
C       -0.4456476684   -0.5809758378    7.8249259846
C        5.8971437541   -1.2336469465    0.8308516808
C       -0.6732083722   -0.1771418360    6.5053504218
C        0.4846659252   -1.5876541261    8.1070117006
C        6.4625045727   -2.2366904375    1.6270650942
C        4.9320165329   -0.3665197952    1.3547097022
C        0.0355397129   -0.7711348359    5.4591347956
C        1.1934227510   -2.2014871375    7.0735313945
C        6.0647484453   -2.3800201152    2.9566656512
C        4.5143299988   -0.5004668575    2.6792208779
C        0.9703609338   -1.7627712974    5.7654959456
C        5.0913365780   -1.5083408197    3.4560761747
N        3.3258333251   -2.9712446853    5.1757852747
O        1.1492096286   -3.9267005249    4.1861412429
O        1.8602987957   -1.6735167475    3.2634170892
O        5.6757566466   -2.2659287183    5.9197138484
O        3.8252159606   -0.5232280895    5.5961040774
F        3.8591490020   -4.0797289953    4.4817520128
S        1.7237933290   -2.6030433295    4.3836794221
S        4.5845291857   -1.6873601187    5.1503551170
H       -0.9945119232   -0.1104867471    8.6361021176
H        6.2128230811   -1.1262579393   -0.2034425864
H       -1.3989951508    0.6012016388    6.2881369458
H        0.6589523800   -1.8989701362    9.1328386817
H        7.2147227528   -2.9033891479    1.2156585719
H        4.4992565871    0.4108263628    0.7318583440
H       -0.1134512517   -0.4567120657    4.4311564930
H        1.9121601108   -2.9865984486    7.2777463145
H        6.4996360546   -3.1395850002    3.5973735382
H        3.7628045382    0.1541518461    3.1042930054
30   
torsion grid (165,)
C       -0.5072391840   -0.6061278303    7.8521929724
C        5.9497626129   -1.2328302496    0.8256894491
C       -0.8837901157   -0.3511402581    6.5289555123
C        0.6018922961   -1.4120592442    8.1265572009
C        6.4444667943   -2.3058496480    1.5764337857
C        5.0657221381   -0.3110723229    1.3972329963
C       -0.1477092211   -0.8929567611    5.4744295201
C        1.3439787581   -1.9733284702    7.0848951782
C        6.0575904804   -2.4648770929    2.9074717311
C        4.6580879858   -0.4588753813    2.7233221395
C        0.9684426630   -1.6818368892    5.7717023916
C        5.1645528402   -1.5370013639    3.4537228168
N        3.3235662721   -2.9306961147    5.1541904787
O        1.1307813158   -3.7365924767    4.0548398255
O        1.9466914185   -1.4575709903    3.3111471936
O        5.7241806447   -2.4163174246    5.8829850358
O        3.9907311750   -0.5443232172    5.6434100216
F        3.7795167361   -4.0730455423    4.4636479287
S        1.7514120305   -2.4553637489    4.3617993631
S        4.6671841209   -1.7385722319    5.1473484640
H       -1.0801429468   -0.1773507155    8.6698211604
H        6.2570509731   -1.1137941656   -0.2098631541
H       -1.7487951463    0.2700142066    6.3151323899
H        0.8922973066   -1.6113292046    9.1539816361
H        7.1339020657   -3.0154028877    1.1283884432
H        4.6872832424    0.5202776542    0.8097875164
H       -0.4201715661   -0.6872590627    4.4438320859
H        2.1951861722   -2.6107567244    7.2888876204
H        6.4401030495   -3.2792865757    3.5132940111
H        3.9663943241    0.2363551052    3.1840595169
30   
torsion grid (180,)
C       -0.6037723495   -0.6554163851    7.8655454842
C        6.0212179922   -1.2436590606    0.8276757197
C       -1.0961812855   -0.5884261497    6.5568537844
C        0.6497266961   -1.2187162827    8.1174097059
C        6.4211598068   -2.3855866318    1.5317436285
C        5.2342463154   -0.2648736827    1.4447233453
C       -0.3341119581   -1.0789361940    5.4967396377
C        1.4254591330   -1.7225279160    7.0690270571
C        6.0360881888   -2.5570150624    2.8617935526
C        4.8285660473   -0.4234042654    2.7701558557
C        0.9228606406   -1.6315774186    5.7707217553
C        5.2396744679   -1.5707195894    3.4535196430
N        3.3059222485   -2.8661621320    5.1347369959
O        1.1300864367   -3.4822733875    3.8505493661
O        2.0641918512   -1.1711064934    3.4117836660
O        5.7479657615   -2.5803163083    5.8419868389
O        4.1724252835   -0.5660829441    5.6949407508
F        3.6724609938   -4.0456038025    4.4560733088
S        1.7789385611   -2.2708391920    4.3317377292
S        4.7438381613   -1.7908793394    5.1447110759
H       -1.1997158697   -0.2700440375    8.6882701639
H        6.3269236435   -1.1154371303   -0.2072395826
H       -2.0725412668   -0.1554269871    6.3593015544
H        1.0312257451   -1.2733212693    9.1328651406
H        7.0358035125   -3.1393565875    1.0484498873
H        4.9292852046    0.6195378857    0.8931283135
H       -0.7071561907   -1.0245121972    4.4783245968
H        2.3902720810   -2.1712503244    7.2639098818
H        6.3477381013   -3.4252870979    3.4323497739
H        4.2089566205    0.3145182168    3.2657343588
