
  -OEChem-05262117483D

 20 20  0     0  0  0  0  0  0999 V2000
   -1.8716   -0.8116   -2.3324 C   0  0  0  0  0  0  0  0  0  0  0  0
    1.8626   -1.0416   -0.1159 C   0  0  0  0  0  0  0  0  0  0  0  0
    1.7453   -1.3001    2.6699 C   0  0  0  0  0  0  0  0  0  0  0  0
    0.7540   -0.5419    0.5727 C   0  0  0  0  0  0  0  0  0  0  0  0
    2.8972   -1.6509    0.5850 C   0  0  0  0  0  0  0  0  0  0  0  0
    0.7232   -0.6765    1.9673 C   0  0  0  0  0  0  0  0  0  0  0  0
    2.8508   -1.7932    1.9734 C   0  0  0  0  0  0  0  0  0  0  0  0
   -2.3485    0.0046   -1.2077 C   0  0  0  0  0  0  0  0  0  0  0  0
   -1.5819   -0.2922    0.0819 C   0  0  0  0  0  0  0  0  0  0  0  0
   -1.4856   -1.4736   -3.2066 N   0  0  0  0  0  0  0  0  0  0  0  0
   -0.2182    0.1003   -0.1446 O   0  0  0  0  0  0  0  0  0  0  0  0
    3.9551   -2.1209   -0.1040 F   0  0  0  0  0  0  0  0  0  0  0  0
   -0.3342   -0.1745    2.6575 F   0  0  0  0  0  0  0  0  0  0  0  0
    4.2769   -2.6426    2.9030 Br  0  0  0  0  0  0  0  0  0  0  0  0
    1.9074   -0.9570   -1.1968 H   0  0  0  0  0  0  0  0  0  0  0  0
    1.6790   -1.3810    3.7494 H   0  0  0  0  0  0  0  0  0  0  0  0
   -2.2375    1.0620   -1.4664 H   0  0  0  0  0  0  0  0  0  0  0  0
   -3.4146   -0.1912   -1.0522 H   0  0  0  0  0  0  0  0  0  0  0  0
   -1.6318   -1.3579    0.3266 H   0  0  0  0  0  0  0  0  0  0  0  0
   -2.0104    0.2838    0.9067 H   0  0  0  0  0  0  0  0  0  0  0  0
  1  8  1  0  0  0  0
  1 10  3  0  0  0  0
  2  4  1  0  0  0  0
  2  5  2  0  0  0  0
  2 15  1  0  0  0  0
  3  6  1  0  0  0  0
  3  7  2  0  0  0  0
  3 16  1  0  0  0  0
  4  6  2  0  0  0  0
  4 11  1  0  0  0  0
  5  7  1  0  0  0  0
  5 12  1  0  0  0  0
  6 13  1  0  0  0  0
  7 14  1  0  0  0  0
  8  9  1  0  0  0  0
  8 17  1  0  0  0  0
  8 18  1  0  0  0  0
  9 11  1  0  0  0  0
  9 19  1  0  0  0  0
  9 20  1  0  0  0  0
M  END
$$$$
