23
0 1 C9FH8N3O2
C                     4.839287892993    -4.318763237727    -1.334935843885
C                     1.821023593652    -1.072218731965    -0.118095509711
C                     0.732699871874    -0.510724409743     0.547201658520
C                     1.804676679894    -0.987296521367     2.670823862784
C                     2.914608606930    -1.627144155217     0.566352862239
C                     2.863310766098    -1.574052064968     1.970748289834
C                     0.745787514399    -0.475172453777     1.938956095615
C                     3.759738828969    -3.703015731078    -0.554278715783
C                     4.063353650328    -2.213388799388    -0.250677917619
N                     5.710581747599    -4.756853365628    -1.969012525081
N                     4.182641121123    -1.487752559551    -1.523428263608
N                     3.936270420243    -2.138378464245     2.811153975401
O                     4.546706569937    -3.126896808165     2.383327911556
O                     4.150528086762    -1.602715186713     3.901054560599
F                    -0.297604447768     0.076426884327     2.596759839372
H                     1.852469372593    -1.078344296852    -1.202200884771
H                    -0.111574993413    -0.096511974695     0.004618986785
H                     1.813235650309    -0.941963566053     3.753322333035
H                     2.830348714528    -3.776218661459    -1.127587046236
H                     3.641126445417    -4.251298678560     0.381747402590
H                     4.982910080538    -2.184362773203     0.342036854596
H                     4.900825974323    -1.930235064680    -2.096859664805
H                     4.500678603858    -0.536375645309    -1.344318558005
