23
0 1 C9FH8N3O2
C                     2.722439855539    -4.285471826262    -0.865562780746
C                     1.769625373195    -1.283930172375    -0.044454103094
C                     0.665085280384    -0.753096361863     0.618935518879
C                     1.820904306526    -1.033388427927     2.733664222771
C                     2.925793079492    -1.696772218367     0.632583052060
C                     2.918944303987    -1.529107425183     2.026718395012
C                     0.707254449200    -0.645178401026     2.005893895911
C                     3.633581939466    -3.220314419120    -1.296780378377
C                     4.092350286011    -2.312500605844    -0.132069047804
N                     1.997558026608    -5.120074533370    -0.505394552752
N                     4.911510379712    -1.236985031063    -0.711439293709
N                     4.108199434518    -1.836578868887     2.843679730944
O                     3.927274878629    -2.288190220661     3.975345653953
O                     5.219462295157    -1.589017185902     2.353931567159
F                    -0.360449993692    -0.142399370139     2.662619081260
H                     1.724853710857    -1.378959837034    -1.123339922861
H                    -0.221545410396    -0.435482623071     0.079400637996
H                     1.846678004282    -0.943815188864     3.813310819447
H                     4.518319001348    -3.685404597088    -1.745016177517
H                     3.158755133659    -2.629037294384    -2.083974945865
H                     4.655571101801    -2.951669178331     0.557023478598
H                     5.740684321318    -1.644346293433    -1.145341280327
H                     5.254897832136    -0.658117376505     0.054492372526
