20
0 1 BrC9F2H6NO
C                    -1.871550264535    -0.811639427183    -2.332418428587
C                     1.862631114944    -1.041628182773    -0.115944192679
C                     1.745325788519    -1.300125746743     2.669890806943
C                     0.753989263738    -0.541872510627     0.572717969773
C                     2.897221124396    -1.650864798858     0.585041660326
C                     0.723161865410    -0.676472020352     1.967287544961
C                     2.850827391030    -1.793203562331     1.973369727900
C                    -2.348480761425     0.004585177653    -1.207661215694
C                    -1.581884342778    -0.292169316263     0.081924363491
N                    -1.485562512039    -1.473577801823    -3.206575989170
O                    -0.218221971134     0.100348826978    -0.144563868975
F                     3.955122876967    -2.120928115459    -0.103987899280
F                    -0.334184309299    -0.174467270976     2.657505996422
Br                    4.276880972920    -2.642649658447     2.902976582742
H                     1.907383224184    -0.956953870531    -1.196794625175
H                     1.679042945565    -1.380978018372     3.749439648713
H                    -2.237526884471     1.062032599837    -1.466433745434
H                    -3.414587020348    -0.191202849520    -1.052227321839
H                    -1.631838316916    -1.357853942660     0.326570433507
H                    -2.010439665737     0.283821947940     0.906662736424
