
  -OEChem-05262117483D

 26 27  0     0  0  0  0  0  0999 V2000
    5.4694   -0.1879    0.2198 C   0  0  0  0  0  0  0  0  0  0  0  0
    6.9246   -2.1246    0.1182 C   0  0  0  0  0  0  0  0  0  0  0  0
    1.9085   -1.3116   -0.1374 C   0  0  0  0  0  0  0  0  0  0  0  0
    6.5701    0.6262    0.4893 C   0  0  0  0  0  0  0  0  0  0  0  0
    8.0315   -1.3111    0.3684 C   0  0  0  0  0  0  0  0  0  0  0  0
    0.8274   -0.7013    0.4983 C   0  0  0  0  0  0  0  0  0  0  0  0
    1.8199   -1.2512    2.6418 C   0  0  0  0  0  0  0  0  0  0  0  0
    2.8929   -1.8952    2.0096 C   0  0  0  0  0  0  0  0  0  0  0  0
    5.6444   -1.5648    0.0383 C   0  0  0  0  0  0  0  0  0  0  0  0
    2.9413   -1.9084    0.5972 C   0  0  0  0  0  0  0  0  0  0  0  0
    7.8454    0.0596    0.5553 C   0  0  0  0  0  0  0  0  0  0  0  0
    0.7991   -0.6707    1.8930 C   0  0  0  0  0  0  0  0  0  0  0  0
    3.8962   -2.5144    2.9692 C   0  0  0  0  0  0  0  0  0  0  0  0
    3.9527   -2.1590    4.1275 O   0  0  0  0  0  0  0  0  0  0  0  0
    4.6831   -3.5128    2.5225 O   0  0  0  0  0  0  0  0  0  0  0  0
    4.2690   -2.6537   -0.3596 S   0  0  0  0  0  0  0  0  0  0  0  0
    9.2289    1.0836    0.8849 Cl  0  0  0  0  0  0  0  0  0  0  0  0
   -0.5346    0.1103    2.7134 Cl  0  0  0  0  0  0  0  0  0  0  0  0
    4.4798    0.2547    0.1645 H   0  0  0  0  0  0  0  0  0  0  0  0
    7.0644   -3.1955    0.0004 H   0  0  0  0  0  0  0  0  0  0  0  0
    1.9611   -1.3160   -1.2217 H   0  0  0  0  0  0  0  0  0  0  0  0
    6.4385    1.6928    0.6414 H   0  0  0  0  0  0  0  0  0  0  0  0
    9.0252   -1.7421    0.4360 H   0  0  0  0  0  0  0  0  0  0  0  0
    0.0305   -0.2450   -0.0802 H   0  0  0  0  0  0  0  0  0  0  0  0
    1.8029   -1.2222    3.7256 H   0  0  0  0  0  0  0  0  0  0  0  0
    4.5712   -3.6329    1.5522 H   0  0  0  0  0  0  0  0  0  0  0  0
  1  4  1  0  0  0  0
  1  9  2  0  0  0  0
  1 19  1  0  0  0  0
  2  5  2  0  0  0  0
  2  9  1  0  0  0  0
  2 20  1  0  0  0  0
  3  6  2  0  0  0  0
  3 10  1  0  0  0  0
  3 21  1  0  0  0  0
  4 11  2  0  0  0  0
  4 22  1  0  0  0  0
  5 11  1  0  0  0  0
  5 23  1  0  0  0  0
  6 12  1  0  0  0  0
  6 24  1  0  0  0  0
  7  8  1  0  0  0  0
  7 12  2  0  0  0  0
  7 25  1  0  0  0  0
  8 10  2  0  0  0  0
  8 13  1  0  0  0  0
  9 16  1  0  0  0  0
 10 16  1  0  0  0  0
 11 17  1  0  0  0  0
 12 18  1  0  0  0  0
 13 14  2  0  0  0  0
 13 15  1  0  0  0  0
 15 26  1  0  0  0  0
M  END
$$$$
