
  -OEChem-05262117483D

 18 18  0     0  0  0  0  0  0999 V2000
    1.7319   -0.4814   -0.0426 C   0  0  0  0  0  0  0  0  0  0  0  0
    0.6993   -0.1274    0.8271 C   0  0  0  0  0  0  0  0  0  0  0  0
    2.8038   -1.7395    1.7300 C   0  0  0  0  0  0  0  0  0  0  0  0
    1.7686   -1.3800    2.5855 C   0  0  0  0  0  0  0  0  0  0  0  0
    2.7812   -1.2985    0.4005 C   0  0  0  0  0  0  0  0  0  0  0  0
    0.7088   -0.5784    2.1498 C   0  0  0  0  0  0  0  0  0  0  0  0
    3.5754   -3.2977   -1.4677 C   0  0  0  0  0  0  0  0  0  0  0  0
    2.2417   -3.8820   -1.0579 C   0  0  0  0  0  0  0  0  0  0  0  0
    4.3212   -3.8033   -2.2767 O   0  0  0  0  0  0  0  0  0  0  0  0
    1.7939   -1.8152    3.8603 F   0  0  0  0  0  0  0  0  0  0  0  0
    4.1200   -1.7312   -0.7069 S   0  0  0  0  0  0  0  0  0  0  0  0
   -0.5698   -0.1485    3.2495 Cl  0  0  0  0  0  0  0  0  0  0  0  0
    1.7217   -0.1242   -1.0676 H   0  0  0  0  0  0  0  0  0  0  0  0
   -0.1170    0.5021    0.4872 H   0  0  0  0  0  0  0  0  0  0  0  0
    3.6111   -2.3591    2.1078 H   0  0  0  0  0  0  0  0  0  0  0  0
    2.2263   -4.0953    0.0144 H   0  0  0  0  0  0  0  0  0  0  0  0
    2.0856   -4.8030   -1.6218 H   0  0  0  0  0  0  0  0  0  0  0  0
    1.4302   -3.1778   -1.2601 H   0  0  0  0  0  0  0  0  0  0  0  0
  1  2  1  0  0  0  0
  1  5  2  0  0  0  0
  1 13  1  0  0  0  0
  2  6  2  0  0  0  0
  2 14  1  0  0  0  0
  3  4  2  0  0  0  0
  3  5  1  0  0  0  0
  3 15  1  0  0  0  0
  4  6  1  0  0  0  0
  4 10  1  0  0  0  0
  5 11  1  0  0  0  0
  6 12  1  0  0  0  0
  7  8  1  0  0  0  0
  7  9  2  0  0  0  0
  7 11  1  0  0  0  0
  8 16  1  0  0  0  0
  8 17  1  0  0  0  0
  8 18  1  0  0  0  0
M  END
$$$$
