
  -OEChem-05262117483D

 63 67  0     1  0  0  0  0  0999 V2000
    2.8311    4.3744    0.6138 C   0  0  0  0  0  0  0  0  0  0  0  0
    4.5233    2.6526    0.6660 C   0  0  0  0  0  0  0  0  0  0  0  0
    3.3259    4.8333   -0.6057 C   0  0  0  0  0  0  0  0  0  0  0  0
    5.0291    3.1131   -0.5505 C   0  0  0  0  0  0  0  0  0  0  0  0
    2.8654    5.7895    4.9322 C   0  0  0  0  0  0  0  0  0  0  0  0
    1.0225    3.9965    3.8252 C   0  0  0  0  0  0  0  0  0  0  0  0
    0.5677    4.9986    4.7241 C   0  0  0  0  0  0  0  0  0  0  0  0
    3.4266    3.2849    1.2645 C   0  0  0  0  0  0  0  0  0  0  0  0
    4.4299    4.2030   -1.1889 C   0  0  0  0  0  0  0  0  0  0  0  0
    3.3225    4.8042    4.0619 C   0  0  0  0  0  0  0  0  0  0  0  0
    2.3882    3.8881    3.5103 C   0  0  0  0  0  0  0  0  0  0  0  0
    1.5158    5.8913    5.2704 C   0  0  0  0  0  0  0  0  0  0  0  0
   -0.5906    3.2607    2.0295 C   0  0  0  0  0  0  0  0  0  0  0  0
    0.0472    3.0688    3.1915 C   0  0  0  0  0  0  0  0  0  0  0  0
   -0.8603    5.1910    5.0718 C   0  0  0  0  0  0  0  0  0  0  0  0
   -1.5710    2.1512    1.7286 C   0  0  0  0  0  0  0  0  0  0  0  0
   -0.3747    1.7644    3.8458 C   0  0  0  0  0  0  0  0  0  0  0  0
   -1.1586    6.5074    5.7723 C   0  0  0  0  0  0  0  0  0  0  0  0
   -1.1499    1.0366    2.7202 C   0  0  0  0  0  0  0  0  0  0  0  0
   -0.8235    7.0326    8.8175 C   0  0  0  0  0  0  0  0  0  0  0  0
   -0.1156    5.8797    8.0503 C   0  0  0  0  0  0  0  0  0  0  0  0
   -0.3494    8.0167    7.7094 C   0  0  0  0  0  0  0  0  0  0  0  0
   -0.0779    6.8044    6.7987 C   0  0  0  0  0  0  0  0  0  0  0  0
    5.6583    4.5604    5.0046 C   0  0  0  0  0  0  0  0  0  0  0  0
    5.2404    6.0295    2.9687 C   0  0  0  0  0  0  0  0  0  0  0  0
    2.8440    2.7781    2.5716 C   0  0  2  0  0  0  0  0  0  0  0  0
    4.8106    4.7660    3.7363 C   0  0  0  0  0  0  0  0  0  0  0  0
    5.0086    4.7378   -2.4688 C   0  0  0  0  0  0  0  0  0  0  0  0
   -1.7532    4.3836    4.8371 O   0  0  0  0  0  0  0  0  0  0  0  0
    1.1965    6.8953    6.1378 O   0  0  0  0  0  0  0  0  0  0  0  0
    3.8048    1.9032    3.1922 O   0  0  0  0  0  0  0  0  0  0  0  0
    4.0644    5.3020   -3.2639 F   0  0  0  0  0  0  0  0  0  0  0  0
    5.9438    5.7030   -2.2386 F   0  0  0  0  0  0  0  0  0  0  0  0
    5.6237    3.7741   -3.1987 F   0  0  0  0  0  0  0  0  0  0  0  0
    1.9852    4.8770    1.0718 H   0  0  0  0  0  0  0  0  0  0  0  0
    4.9861    1.8092    1.1657 H   0  0  0  0  0  0  0  0  0  0  0  0
    2.8573    5.6784   -1.1006 H   0  0  0  0  0  0  0  0  0  0  0  0
    5.8832    2.6206   -1.0052 H   0  0  0  0  0  0  0  0  0  0  0  0
    3.5509    6.5025    5.3793 H   0  0  0  0  0  0  0  0  0  0  0  0
   -0.4888    4.1478    1.4091 H   0  0  0  0  0  0  0  0  0  0  0  0
   -2.5950    2.4992    1.9241 H   0  0  0  0  0  0  0  0  0  0  0  0
   -1.5404    1.8200    0.6844 H   0  0  0  0  0  0  0  0  0  0  0  0
    0.4813    1.1831    4.2125 H   0  0  0  0  0  0  0  0  0  0  0  0
   -1.0093    1.9874    4.7108 H   0  0  0  0  0  0  0  0  0  0  0  0
   -1.1762    7.3127    5.0257 H   0  0  0  0  0  0  0  0  0  0  0  0
   -2.1458    6.4443    6.2347 H   0  0  0  0  0  0  0  0  0  0  0  0
   -2.0008    0.4643    3.0995 H   0  0  0  0  0  0  0  0  0  0  0  0
   -0.4815    0.3338    2.2112 H   0  0  0  0  0  0  0  0  0  0  0  0
   -0.4771    7.2330    9.8335 H   0  0  0  0  0  0  0  0  0  0  0  0
   -1.9101    6.9150    8.8342 H   0  0  0  0  0  0  0  0  0  0  0  0
    0.8967    5.7007    8.4216 H   0  0  0  0  0  0  0  0  0  0  0  0
   -0.6418    4.9262    7.9540 H   0  0  0  0  0  0  0  0  0  0  0  0
   -1.0565    8.7642    7.3389 H   0  0  0  0  0  0  0  0  0  0  0  0
    0.5916    8.5066    7.9729 H   0  0  0  0  0  0  0  0  0  0  0  0
    5.5651    5.4002    5.7012 H   0  0  0  0  0  0  0  0  0  0  0  0
    6.7160    4.4659    4.7366 H   0  0  0  0  0  0  0  0  0  0  0  0
    5.3588    3.6485    5.5308 H   0  0  0  0  0  0  0  0  0  0  0  0
    5.1029    6.9349    3.5695 H   0  0  0  0  0  0  0  0  0  0  0  0
    4.6637    6.1425    2.0461 H   0  0  0  0  0  0  0  0  0  0  0  0
    6.2998    5.9625    2.6989 H   0  0  0  0  0  0  0  0  0  0  0  0
    1.9617    2.1891    2.3020 H   0  0  0  0  0  0  0  0  0  0  0  0
    5.0035    3.9103    3.0947 H   0  0  0  0  0  0  0  0  0  0  0  0
    3.4013    1.5775    4.0119 H   0  0  0  0  0  0  0  0  0  0  0  0
  1  3  1  0  0  0  0
  1  8  2  0  0  0  0
  1 35  1  0  0  0  0
  2  4  2  0  0  0  0
  2  8  1  0  0  0  0
  2 36  1  0  0  0  0
  3  9  2  0  0  0  0
  3 37  1  0  0  0  0
  4  9  1  0  0  0  0
  4 38  1  0  0  0  0
  5 10  1  0  0  0  0
  5 12  2  0  0  0  0
  5 39  1  0  0  0  0
  6  7  2  0  0  0  0
  6 11  1  0  0  0  0
  6 14  1  0  0  0  0
  7 12  1  0  0  0  0
  7 15  1  0  0  0  0
  8 26  1  0  0  0  0
  9 28  1  0  0  0  0
 10 11  2  0  0  0  0
 10 27  1  0  0  0  0
 11 26  1  0  0  0  0
 12 30  1  0  0  0  0
 13 14  2  0  0  0  0
 13 16  1  0  0  0  0
 13 40  1  0  0  0  0
 14 17  1  0  0  0  0
 15 18  1  0  0  0  0
 15 29  2  0  0  0  0
 16 19  1  0  0  0  0
 16 41  1  0  0  0  0
 16 42  1  0  0  0  0
 17 19  1  0  0  0  0
 17 43  1  0  0  0  0
 17 44  1  0  0  0  0
 18 23  1  0  0  0  0
 18 45  1  0  0  0  0
 18 46  1  0  0  0  0
 19 47  1  0  0  0  0
 19 48  1  0  0  0  0
 20 21  1  0  0  0  0
 20 22  1  0  0  0  0
 20 49  1  0  0  0  0
 20 50  1  0  0  0  0
 21 23  1  0  0  0  0
 21 51  1  0  0  0  0
 21 52  1  0  0  0  0
 22 23  1  0  0  0  0
 22 53  1  0  0  0  0
 22 54  1  0  0  0  0
 23 30  1  0  0  0  0
 24 27  1  0  0  0  0
 24 55  1  0  0  0  0
 24 56  1  0  0  0  0
 24 57  1  0  0  0  0
 25 27  1  0  0  0  0
 25 58  1  0  0  0  0
 25 59  1  0  0  0  0
 25 60  1  0  0  0  0
 26 31  1  0  0  0  0
 26 61  1  0  0  0  0
 27 62  1  0  0  0  0
 28 32  1  0  0  0  0
 28 33  1  0  0  0  0
 28 34  1  0  0  0  0
 31 63  1  0  0  0  0
M  END
$$$$
