
  -OEChem-05262117483D

 40 42  0     1  0  0  0  0  0999 V2000
    2.8102   -2.7187    0.5863 C   0  0  0  0  0  0  0  0  0  0  0  0
    4.1215    0.5643    1.3461 C   0  0  0  0  0  0  0  0  0  0  0  0
    2.8297   -3.3464    1.8270 C   0  0  0  0  0  0  0  0  0  0  0  0
    3.9438    0.5999   -0.0004 C   0  0  0  0  0  0  0  0  0  0  0  0
    3.6527   -0.7367    1.7839 C   0  0  0  0  0  0  0  0  0  0  0  0
    3.2453   -1.3929    0.6126 C   0  0  0  0  0  0  0  0  0  0  0  0
    3.5664   -1.4724    3.0043 C   0  0  0  0  0  0  0  0  0  0  0  0
   -2.6622   -0.1440    4.8338 C   0  0  0  0  0  0  0  0  0  0  0  0
   -2.3278    1.2576    5.4184 C   0  0  0  0  0  0  0  0  0  0  0  0
   -1.3529   -0.5927    4.1664 C   0  0  0  0  0  0  0  0  0  0  0  0
   -0.8302    1.4575    5.1103 C   0  0  0  0  0  0  0  0  0  0  0  0
    3.9702   -1.8551    5.3679 C   0  0  0  0  0  0  0  0  0  0  0  0
    2.1162    0.5495    5.2219 C   0  0  0  0  0  0  0  0  0  0  0  0
    1.0023    0.0131    4.3196 C   0  0  0  0  0  0  0  0  0  0  0  0
    3.5114    0.4350    4.5846 C   0  0  0  0  0  0  0  0  0  0  0  0
    3.1790   -2.7565    2.9881 N   0  0  0  0  0  0  0  0  0  0  0  0
   -0.3138    0.0957    4.9388 N   0  0  0  0  0  0  0  0  0  0  0  0
    3.9151   -0.9325    4.2357 N   0  0  2  0  0  0  0  0  0  0  0  0
    3.4037   -0.5781   -0.4754 O   0  0  0  0  0  0  0  0  0  0  0  0
    2.5080   -3.2256   -0.3231 H   0  0  0  0  0  0  0  0  0  0  0  0
    4.5604    1.3585    1.9324 H   0  0  0  0  0  0  0  0  0  0  0  0
    2.5363   -4.3917    1.9073 H   0  0  0  0  0  0  0  0  0  0  0  0
    4.1465    1.3516   -0.7500 H   0  0  0  0  0  0  0  0  0  0  0  0
   -2.9351   -0.8363    5.6347 H   0  0  0  0  0  0  0  0  0  0  0  0
   -3.4915   -0.1183    4.1216 H   0  0  0  0  0  0  0  0  0  0  0  0
   -2.9320    2.0521    4.9715 H   0  0  0  0  0  0  0  0  0  0  0  0
   -2.5066    1.2784    6.4966 H   0  0  0  0  0  0  0  0  0  0  0  0
   -1.1974   -1.6759    4.1947 H   0  0  0  0  0  0  0  0  0  0  0  0
   -1.3363   -0.2786    3.1040 H   0  0  0  0  0  0  0  0  0  0  0  0
   -0.7036    2.0484    4.1810 H   0  0  0  0  0  0  0  0  0  0  0  0
   -0.3018    1.9828    5.9110 H   0  0  0  0  0  0  0  0  0  0  0  0
    4.4283   -1.3297    6.2112 H   0  0  0  0  0  0  0  0  0  0  0  0
    4.5815   -2.7202    5.1087 H   0  0  0  0  0  0  0  0  0  0  0  0
    2.9823   -2.2252    5.6704 H   0  0  0  0  0  0  0  0  0  0  0  0
    2.0817    0.0208    6.1802 H   0  0  0  0  0  0  0  0  0  0  0  0
    1.9486    1.6103    5.4442 H   0  0  0  0  0  0  0  0  0  0  0  0
    1.0235    0.5484    3.3480 H   0  0  0  0  0  0  0  0  0  0  0  0
    1.1965   -1.0407    4.0981 H   0  0  0  0  0  0  0  0  0  0  0  0
    4.2598    0.8425    5.2745 H   0  0  0  0  0  0  0  0  0  0  0  0
    3.5387    1.0520    3.6890 H   0  0  0  0  0  0  0  0  0  0  0  0
  1  3  1  0  0  0  0
  1  6  2  0  0  0  0
  1 20  1  0  0  0  0
  2  4  2  0  0  0  0
  2  5  1  0  0  0  0
  2 21  1  0  0  0  0
  3 16  2  0  0  0  0
  3 22  1  0  0  0  0
  4 19  1  0  0  0  0
  4 23  1  0  0  0  0
  5  6  1  0  0  0  0
  5  7  2  0  0  0  0
  6 19  1  0  0  0  0
  7 16  1  0  0  0  0
  7 18  1  0  0  0  0
  8  9  1  0  0  0  0
  8 10  1  0  0  0  0
  8 24  1  0  0  0  0
  8 25  1  0  0  0  0
  9 11  1  0  0  0  0
  9 26  1  0  0  0  0
  9 27  1  0  0  0  0
 10 17  1  0  0  0  0
 10 28  1  0  0  0  0
 10 29  1  0  0  0  0
 11 17  1  0  0  0  0
 11 30  1  0  0  0  0
 11 31  1  0  0  0  0
 12 18  1  0  0  0  0
 12 32  1  0  0  0  0
 12 33  1  0  0  0  0
 12 34  1  0  0  0  0
 13 14  1  0  0  0  0
 13 15  1  0  0  0  0
 13 35  1  0  0  0  0
 13 36  1  0  0  0  0
 14 17  1  0  0  0  0
 14 37  1  0  0  0  0
 14 38  1  0  0  0  0
 15 18  1  0  0  0  0
 15 39  1  0  0  0  0
 15 40  1  0  0  0  0
M  END
$$$$
