
  -OEChem-05262117483D

 50 53  0     1  0  0  0  0  0999 V2000
    9.3253   -0.8889    0.0744 C   0  0  0  0  0  0  0  0  0  0  0  0
    8.7547   -0.4413    1.2861 C   0  0  0  0  0  0  0  0  0  0  0  0
    8.5367   -1.1595   -1.0412 C   0  0  0  0  0  0  0  0  0  0  0  0
    1.2549    1.6396    0.7950 C   0  0  0  0  0  0  0  0  0  0  0  0
    7.3774   -0.2508    1.4171 C   0  0  0  0  0  0  0  0  0  0  0  0
    0.6385    2.6832    1.4888 C   0  0  0  0  0  0  0  0  0  0  0  0
    6.0197   -1.1392   -1.8177 C   0  0  0  0  0  0  0  0  0  0  0  0
    7.1459   -0.9750   -0.9339 C   0  0  0  0  0  0  0  0  0  0  0  0
    0.4952    0.6711    0.1306 C   0  0  0  0  0  0  0  0  0  0  0  0
   -0.9203    0.7199    0.1307 C   0  0  0  0  0  0  0  0  0  0  0  0
    6.6084   -0.5262    0.2913 C   0  0  0  0  0  0  0  0  0  0  0  0
   -1.5303    1.8037    0.7870 C   0  0  0  0  0  0  0  0  0  0  0  0
   -0.7379    2.7394    1.4627 C   0  0  0  0  0  0  0  0  0  0  0  0
    4.9149   -0.7888   -1.1006 C   0  0  0  0  0  0  0  0  0  0  0  0
    3.4947   -0.7771   -1.4846 C   0  0  0  0  0  0  0  0  0  0  0  0
   -0.9575   -1.7088   -0.3622 C   0  0  0  0  0  0  0  0  0  0  0  0
    1.1904   -0.3599   -0.7463 C   0  0  2  0  0  0  0  0  0  0  0  0
   -1.7001   -0.3771   -0.6071 C   0  0  0  0  0  0  0  0  0  0  0  0
    0.5130   -1.7728   -0.7875 C   0  0  1  0  0  0  0  0  0  0  0  0
   -1.8066   -0.0313   -2.1098 C   0  0  0  0  0  0  0  0  0  0  0  0
   -3.1291   -0.6141   -0.0686 C   0  0  0  0  0  0  0  0  0  0  0  0
    1.2268   -2.7744    0.1580 C   0  0  0  0  0  0  0  0  0  0  0  0
    2.6259   -0.4026   -0.5048 N   0  0  0  0  0  0  0  0  0  0  0  0
    3.1378   -1.0887   -2.6308 O   0  0  0  0  0  0  0  0  0  0  0  0
    5.2426   -0.4079    0.1941 O   0  0  0  0  0  0  0  0  0  0  0  0
   -2.8873    1.9899    0.7689 O   0  0  0  0  0  0  0  0  0  0  0  0
    0.5668   -2.2999   -2.1019 O   0  0  0  0  0  0  0  0  0  0  0  0
   -1.4031    3.7579    2.0950 F   0  0  0  0  0  0  0  0  0  0  0  0
    0.4983   -3.8966    0.3400 F   0  0  0  0  0  0  0  0  0  0  0  0
    2.4340   -3.1710   -0.3045 F   0  0  0  0  0  0  0  0  0  0  0  0
    1.4300   -2.2257    1.3926 F   0  0  0  0  0  0  0  0  0  0  0  0
   10.4017   -1.0241    0.0167 H   0  0  0  0  0  0  0  0  0  0  0  0
    9.4010   -0.2412    2.1360 H   0  0  0  0  0  0  0  0  0  0  0  0
    8.9831   -1.5046   -1.9695 H   0  0  0  0  0  0  0  0  0  0  0  0
    2.3369    1.6190    0.7472 H   0  0  0  0  0  0  0  0  0  0  0  0
    6.9278    0.0912    2.3442 H   0  0  0  0  0  0  0  0  0  0  0  0
    1.2063    3.4444    2.0142 H   0  0  0  0  0  0  0  0  0  0  0  0
    6.0097   -1.4743   -2.8459 H   0  0  0  0  0  0  0  0  0  0  0  0
   -1.0335   -1.9222    0.7077 H   0  0  0  0  0  0  0  0  0  0  0  0
   -1.4680   -2.5172   -0.8906 H   0  0  0  0  0  0  0  0  0  0  0  0
    1.0893   -0.0077   -1.7759 H   0  0  0  0  0  0  0  0  0  0  0  0
   -2.3262   -0.8346   -2.6423 H   0  0  0  0  0  0  0  0  0  0  0  0
   -0.8351    0.0979   -2.5898 H   0  0  0  0  0  0  0  0  0  0  0  0
   -2.3769    0.8940   -2.2378 H   0  0  0  0  0  0  0  0  0  0  0  0
   -3.5156   -1.5433   -0.5007 H   0  0  0  0  0  0  0  0  0  0  0  0
   -3.8091    0.1927   -0.3359 H   0  0  0  0  0  0  0  0  0  0  0  0
   -3.1383   -0.7181    1.0207 H   0  0  0  0  0  0  0  0  0  0  0  0
    2.9667   -0.3881    0.4489 H   0  0  0  0  0  0  0  0  0  0  0  0
   -3.0852    2.7914    1.2839 H   0  0  0  0  0  0  0  0  0  0  0  0
    1.4383   -2.0714   -2.4916 H   0  0  0  0  0  0  0  0  0  0  0  0
  1  2  1  0  0  0  0
  1  3  2  0  0  0  0
  1 32  1  0  0  0  0
  2  5  2  0  0  0  0
  2 33  1  0  0  0  0
  3  8  1  0  0  0  0
  3 34  1  0  0  0  0
  4  6  2  0  0  0  0
  4  9  1  0  0  0  0
  4 35  1  0  0  0  0
  5 11  1  0  0  0  0
  5 36  1  0  0  0  0
  6 13  1  0  0  0  0
  6 37  1  0  0  0  0
  7  8  1  0  0  0  0
  7 14  2  0  0  0  0
  7 38  1  0  0  0  0
  8 11  2  0  0  0  0
  9 10  2  0  0  0  0
  9 17  1  0  0  0  0
 10 12  1  0  0  0  0
 10 18  1  0  0  0  0
 11 25  1  0  0  0  0
 12 13  2  0  0  0  0
 12 26  1  0  0  0  0
 13 28  1  0  0  0  0
 14 15  1  0  0  0  0
 14 25  1  0  0  0  0
 15 23  1  0  0  0  0
 15 24  2  0  0  0  0
 16 18  1  0  0  0  0
 16 19  1  0  0  0  0
 16 39  1  0  0  0  0
 16 40  1  0  0  0  0
 17 19  1  0  0  0  0
 17 23  1  0  0  0  0
 17 41  1  0  0  0  0
 18 20  1  0  0  0  0
 18 21  1  0  0  0  0
 19 22  1  0  0  0  0
 19 27  1  0  0  0  0
 20 42  1  0  0  0  0
 20 43  1  0  0  0  0
 20 44  1  0  0  0  0
 21 45  1  0  0  0  0
 21 46  1  0  0  0  0
 21 47  1  0  0  0  0
 22 29  1  0  0  0  0
 22 30  1  0  0  0  0
 22 31  1  0  0  0  0
 23 48  1  0  0  0  0
 26 49  1  0  0  0  0
 27 50  1  0  0  0  0
M  END
$$$$
