29
0 1 C10ClFH12N4O
C                     3.140333284307     3.891396780165     0.624977680146
C                     4.978489058948     5.161058535737     0.176618963724
C                     3.202832129197     3.328301310581    -0.653961917207
C                     5.025728946674     4.587968972435    -1.108983122881
C                     2.171439080362     2.335655929470    -1.143835951083
C                     0.488743885983    -0.654508081006     0.519419637998
C                    -0.603936726399     0.686855360951    -0.693592776404
C                     0.896028687538     0.320388802294    -0.606131504756
C                    -1.960976805092    -0.551297050914     1.039036775514
C                    -3.322148889950    -0.546234597752     0.357814828768
N                     4.027186509980     4.810353276879     1.038447499647
N                     4.155547200311     3.693339461193    -1.528460214996
N                    -0.907959024795    -0.571208708743     0.038949331868
N                     1.831928247889     1.366442848629    -0.238327186111
O                     1.653818803634     2.427806896562    -2.250339090258
F                    -4.329467201507    -0.494077251419     1.334398998897
Cl                    6.294103298762     5.079992831064    -2.209764480548
H                     2.350741051920     3.622212228421     1.322368991112
H                     5.710496348981     5.900540840170     0.491174116448
H                     0.921261735522    -1.660232510804     0.515559221453
H                     0.629206377571    -0.198244631830     1.514782322918
H                    -0.827972100783     1.593444255987    -0.109500116029
H                    -1.043266303747     0.768568905533    -1.690148152673
H                     1.232554034482    -0.191498140987    -1.510808170315
H                    -1.875734421114    -1.452125836137     1.657031539023
H                    -1.887684126257     0.323815071272     1.711582517925
H                    -3.468536806312    -1.454786941327    -0.232642219461
H                    -3.446865337919     0.329977731482    -0.287042679197
H                     2.420302147695     1.223641780070     0.572910775490
