
  -OEChem-05262117483D

 30 31  0     0  0  0  0  0  0999 V2000
    0.5352    2.0831   -5.2329 C   0  0  0  0  0  0  0  0  0  0  0  0
    1.8745    1.0531   -6.7693 C   0  0  0  0  0  0  0  0  0  0  0  0
    0.7061    1.0029   -4.3680 C   0  0  0  0  0  0  0  0  0  0  0  0
    2.0354   -0.0361   -5.8850 C   0  0  0  0  0  0  0  0  0  0  0  0
    0.0391    0.9737   -3.0285 C   0  0  0  0  0  0  0  0  0  0  0  0
    0.3152   -1.1162    0.0769 C   0  0  0  0  0  0  0  0  0  0  0  0
   -0.5512    0.8475   -0.1069 C   0  0  0  0  0  0  0  0  0  0  0  0
   -0.4050   -0.3583   -1.0620 C   0  0  0  0  0  0  0  0  0  0  0  0
    0.7367    0.4434    2.1385 C   0  0  0  0  0  0  0  0  0  0  0  0
    0.9356   -0.6265    3.1998 C   0  0  0  0  0  0  0  0  0  0  0  0
    1.1275    2.1022   -6.4375 N   0  0  0  0  0  0  0  0  0  0  0  0
    1.4595   -0.0630   -4.6979 N   0  0  0  0  0  0  0  0  0  0  0  0
    0.3726   -0.1103   -2.2469 N   0  0  0  0  0  0  0  0  0  0  0  0
   -0.1818   -0.0692    1.0755 N   0  3  0  0  0  0  0  0  0  0  0  0
   -0.7283    1.8507   -2.6344 O   0  0  0  0  0  0  0  0  0  0  0  0
   -0.3370   -1.0494    3.6080 F   0  0  0  0  0  0  0  0  0  0  0  0
    3.0156   -1.3927   -6.3559 Cl  0  0  0  0  0  0  0  0  0  0  0  0
   -0.0810    2.9320   -4.9525 H   0  0  0  0  0  0  0  0  0  0  0  0
    2.3581    1.0559   -7.7429 H   0  0  0  0  0  0  0  0  0  0  0  0
   -0.0067   -2.1262    0.3281 H   0  0  0  0  0  0  0  0  0  0  0  0
    1.4019   -1.0531    0.0096 H   0  0  0  0  0  0  0  0  0  0  0  0
    0.2307    1.5946   -0.2267 H   0  0  0  0  0  0  0  0  0  0  0  0
   -1.5266    1.3152    0.0044 H   0  0  0  0  0  0  0  0  0  0  0  0
   -1.3820   -0.8006   -1.2891 H   0  0  0  0  0  0  0  0  0  0  0  0
    0.2623    1.3318    2.5632 H   0  0  0  0  0  0  0  0  0  0  0  0
    1.6821    0.7292    1.6719 H   0  0  0  0  0  0  0  0  0  0  0  0
    1.4657   -0.2186    4.0630 H   0  0  0  0  0  0  0  0  0  0  0  0
    1.4691   -1.5021    2.8193 H   0  0  0  0  0  0  0  0  0  0  0  0
    0.8505   -0.8737   -2.7217 H   0  0  0  0  0  0  0  0  0  0  0  0
   -1.0254   -0.4126    1.5480 H   0  0  0  0  0  0  0  0  0  0  0  0
  1  3  1  0  0  0  0
  1 11  2  0  0  0  0
  1 18  1  0  0  0  0
  2  4  2  0  0  0  0
  2 11  1  0  0  0  0
  2 19  1  0  0  0  0
  3  5  1  0  0  0  0
  3 12  2  0  0  0  0
  4 12  1  0  0  0  0
  4 17  1  0  0  0  0
  5 13  1  0  0  0  0
  5 15  2  0  0  0  0
  6  8  1  0  0  0  0
  6 14  1  0  0  0  0
  6 20  1  0  0  0  0
  6 21  1  0  0  0  0
  7  8  1  0  0  0  0
  7 14  1  0  0  0  0
  7 22  1  0  0  0  0
  7 23  1  0  0  0  0
  8 13  1  0  0  0  0
  8 24  1  0  0  0  0
  9 10  1  0  0  0  0
  9 14  1  0  0  0  0
  9 25  1  0  0  0  0
  9 26  1  0  0  0  0
 10 16  1  0  0  0  0
 10 27  1  0  0  0  0
 10 28  1  0  0  0  0
 13 29  1  0  0  0  0
 14 30  1  0  0  0  0
M  CHG  1  14   1
M  END
$$$$
