40
0 1 C15H21N3O
C                     2.019576465915    -3.554743520505     0.511386955486
C                     3.430759930056    -0.300839085803     1.212844522348
C                     2.071093867664    -4.179816590135     1.751876923011
C                     3.186596120399    -0.254211376732    -0.122438890421
C                     2.969258621347    -1.596852231309     1.665931876365
C                     2.494018723934    -2.241486474117     0.516484154424
C                     2.916365078387    -2.327065626473     2.890678641952
C                    -0.244450205655     1.186285816659     1.507742842529
C                    -0.614670842696    -0.246327572937     1.028314899086
C                     0.007242742647     1.032601731919     3.019210716906
C                    -0.520961459302    -1.111746269312     2.297924207905
C                     3.485089136080    -2.733107216131     5.218491911155
C                     1.697660918575    -0.290879552648     5.270452985661
C                     0.494447876553    -0.871679323162     4.518188146407
C                     3.014517872858    -0.427095222491     4.483907316436
N                     2.486281163553    -3.597502309152     2.896309616651
N                     0.398968474766    -0.367769345323     3.158646572955
N                     3.348170893529    -1.802492950757     4.101879195919
O                     2.607719782043    -1.423881203605    -0.576630309186
H                     1.662885038031    -4.052921307919    -0.382932553163
H                     3.898151912471     0.487238969497     1.784821421772
H                     1.745854806977    -5.214213465781     1.848955355451
H                     3.358257397464     0.499736717018    -0.877468130255
H                     0.665075871614     1.528707309002     1.007694799975
H                    -1.031976583129     1.917598032425     1.304677919613
H                    -1.613319781596    -0.293573154610     0.585127667498
H                     0.096596907637    -0.593884063347     0.275968571834
H                     0.791626151455     1.702331955230     3.387224235178
H                    -0.914771789791     1.253286811297     3.594142372538
H                    -1.518261678954    -1.214564136612     2.769221661013
H                    -0.134559059418    -2.117162702098     2.108081677198
H                     4.026980241995    -2.223210889346     6.021067691618
H                     4.053749406753    -3.608242251690     4.901877343605
H                     2.522157579234    -3.088926782227     5.607803203458
H                     1.776309320583    -0.787036830345     6.244254308090
H                     1.543076465270     0.774394834408     5.482827680911
H                     0.604972834211    -1.959375430185     4.457346726875
H                    -0.430901890507    -0.676859298693     5.096093777963
H                     3.840988983650    -0.024603295353     5.082911190463
H                     2.935355676821     0.176437858115     3.584764103507
