62
0 1 C26H30N2O4
C                     2.334365731929     3.474270769480     2.841606054792
C                    -2.626194729037     1.863793595565     8.284333866743
C                     3.646731336971     3.907682939088     3.011582690916
C                    -2.239080167754     1.759801330573     6.948533760054
C                     1.733127687594     5.714469623149     2.142349568787
C                    -4.569577524313     1.860069606197     6.244838170473
C                     1.361531311516     4.388353967425     2.411666594754
C                    -3.981710094724     1.976058091008     8.607884492288
C                    -4.938131401310     1.970820834737     7.588203182896
C                     4.035804377818     5.231472919180     2.764003248743
C                     3.056894595560     6.146838641597     2.303790385999
C                    -3.205932504390     1.758941475816     5.927636750688
C                    -1.872727133485     2.864705005170     2.138917632321
C                    -2.144879464487     4.153950127613     1.778840248179
C                    -0.018380203106     3.945277212164     2.246998923704
C                    -4.545375011905     3.026555056286    12.336316170870
C                    -6.332077769788     2.060781495020     8.173065563275
C                    -6.075164996313     2.569988870119     9.610600263887
C                    -4.648447307608     2.078971982804     9.969393488401
C                     5.457535052865     5.659980214016     3.033933479970
C                    -3.367708010312     4.892806304279     1.365162726623
C                     2.372366005637     8.495053417389     2.142073036652
C                     4.237123751496     7.687232728754     0.841144993757
C                    -2.813399644730     1.703890853083     2.271405851978
C                    -3.908564675323     2.985562380704    10.953461536647
C                    -3.627083278186     1.731343169745     3.565266606222
N                    -0.515112892226     2.752396429266     2.430550542813
N                     3.433945587447     7.499602756757     2.052180259222
O                    -5.427018874238     2.295064550134    12.720846304740
O                    -0.959378751014     4.860780028521     1.846066725227
O                    -4.029060966787     3.969995884024    13.183901759290
O                    -2.714016248655     1.654080804562     4.654649587315
H                     2.047452759358     2.449088795276     3.051850018003
H                    -1.861556514782     1.859436472123     9.058471923201
H                     4.393865692040     3.204491851184     3.373684283724
H                    -1.193560283479     1.684475711648     6.664731105916
H                     0.974188389100     6.406668731992     1.797537349057
H                    -5.330882049143     1.855598476817     5.471670270471
H                    -6.998474615890     2.716057734957     7.602601364533
H                    -6.796183995651     1.065462615389     8.189039089593
H                    -6.081543894206     3.667420588960     9.607499724650
H                    -6.821073475331     2.235799718849    10.333406395209
H                    -4.717405485327     1.081177178256    10.422159002130
H                     6.095897556165     5.548092577415     2.148484854659
H                     5.494511527423     6.710756568986     3.333830074701
H                     5.898976333038     5.048779964181     3.826456650298
H                    -3.641835484670     5.661590309764     2.097053116118
H                    -3.226642367831     5.387863385512     0.397901711719
H                    -4.206163032262     4.197963187961     1.273526950588
H                     2.827365552088     9.490663884247     2.168507025857
H                     1.805566332620     8.353337749498     3.065658452807
H                     1.668676464552     8.473583353842     1.291149858771
H                     4.671726506327     8.692547765894     0.843879215362
H                     3.635134540110     7.570284512278    -0.076867916490
H                     5.052995262838     6.965189665678     0.802793568635
H                    -3.520641441303     1.683821071812     1.434058265635
H                    -2.232216728748     0.778756223018     2.233278078313
H                    -2.873514906127     2.642876357964    11.085907173414
H                    -3.845453429522     4.003571109103    10.546291428961
H                    -4.210004647140     2.660395251075     3.629801534515
H                    -4.324366742837     0.882023716318     3.593103486546
H                    -3.335988440374     4.477626416870    12.728326637371
