29
0 1 C10ClFH12N4O
C                    -4.062101812844    -1.684901858056    -4.125825205550
C                    -4.817646497740     0.310753236720    -4.937567949292
C                    -3.197910363088    -1.009661762250    -3.259447338438
C                    -3.943594825517     0.976854108715    -4.061172805208
C                    -2.299654379254    -1.786923874581    -2.327412713805
C                     0.848137536127    -0.951375961723    -0.669328419055
C                    -0.645191450536    -0.870407302858     0.817800087103
C                    -0.581289074222    -1.548266402514    -0.576893294385
C                     1.495213206790     0.295211127414     1.427992614192
C                     2.534538722557     1.249499537626     0.857406921655
N                    -4.871479991721    -1.020929585515    -4.964404007341
N                    -3.143817191267     0.333445366242    -3.232864084217
N                     0.493274145625    -0.008150419149     0.421221593583
N                    -1.513692064403    -1.009196731901    -1.540230703692
O                    -2.316011368547    -3.019259851010    -2.319224701907
F                     3.515093923142     1.505835238062     1.828654265529
Cl                   -3.899852127098     2.726666049956    -4.053562051561
H                    -4.091253571534    -2.769692131304    -4.132627847386
H                    -5.466992709061     0.864696776949    -5.610706132049
H                     1.615179871242    -1.685977363110    -0.374806126908
H                     1.132385053671    -0.485545036203    -1.618482370962
H                    -1.564646442766    -0.333970283576     1.075023376474
H                    -0.394982013502    -1.580102730112     1.622044098722
H                    -0.666416113443    -2.632372015704    -0.605222050218
H                     1.002064767211     0.774486165103     2.280778538189
H                     2.001950250375    -0.613755842381     1.802586620416
H                     2.079160989029     2.202987503806     0.575575066327
H                     3.042303359492     0.818929853989    -0.012378661482
H                    -1.596784761215    -0.002959158962    -1.648770056161
