56
-2 1 C25FH23O6S
C                     3.267592328229    -6.837811498674     1.136548789301
C                     3.080238131644    -8.078135722605     0.555766000084
C                     1.639121853835    -9.267303200223    -4.930604321165
C                     1.608180640072    -6.898942267013    -5.532764562625
C                     2.780412314365    -9.057001345025    -4.150044847425
C                     2.749982709130    -6.695347145574    -4.751122016596
C                     4.331773863801    -1.048402630048    -0.655721193302
C                     2.014696499514    -1.704895337265    -0.515702564976
C                     4.343971398507    -6.005421064521    -0.831967013008
C                     3.898840255603    -5.763905569841     0.464263989464
C                     4.704880807977    -2.242769173217    -0.022489063059
C                     2.369748800988    -2.900671730234     0.117615159681
C                     3.727658328422    -3.174388557785     0.390268420415
C                     3.520331687423    -8.388194763492    -0.788091454067
C                     2.983116571262    -0.764982565741    -0.889756043137
C                     1.081438380128    -8.184905432396    -5.603056944262
C                     3.324858996950    -7.771669070004    -4.072038448500
C                     4.185720816070    -7.267920216043    -1.429700634183
C                     4.128813527468     2.330911734066    -0.923756139307
C                     6.184537040873    -2.499873614678     0.195904091610
C                     1.283501761088    -3.877339748491     0.513275969958
C                     2.207498072764     1.561318579583     0.588521513788
C                     1.741056085152     2.564848987747    -1.674399521377
C                     4.106272351037    -4.427890543119     1.165096015946
C                     2.687362735576     1.675372159674    -0.861934974628
O                     3.313308704182    -9.516526335605    -1.333816014947
O                     5.010060824399     1.765977855226    -1.618967679382
O                     4.198280064566     3.412773455962    -0.270942531355
O                     5.661051443319    -8.670447124199    -3.210576325461
O                     5.344150924279    -6.174019215178    -3.538867362793
O                     2.562107341786     0.375021242736    -1.531526765181
F                    -0.036788939447    -8.394063730350    -6.370554239485
S                     4.805169404006    -7.475031720048    -3.072483452380
H                     2.897493692994    -6.668394504493     2.149947876185
H                     2.571728868289    -8.877128126667     1.092753675880
H                     1.179837167918   -10.248564280873    -5.010506153481
H                     1.134020481132    -6.085090715044    -6.073468602345
H                     3.233533265843    -9.852349617852    -3.570074033011
H                     3.202791409011    -5.712348765557    -4.666222576493
H                     5.059333387627    -0.309352933277    -0.978931965367
H                     0.970442629381    -1.477153161188    -0.719328934329
H                     4.816269509845    -5.213511808550    -1.407608681578
H                     6.450676283605    -2.490931916846     1.261086650544
H                     6.494402720408    -3.470559406280    -0.207481917468
H                     6.777060261522    -1.724982163333    -0.297294894975
H                     1.399963811877    -4.836821302762    -0.000551085147
H                     1.305584722973    -4.098228555804     1.588499994555
H                     0.294228963927    -3.473192279865     0.275211599709
H                     1.185846398486     1.160151722763     0.631897809907
H                     2.240284802632     2.553101782848     1.043203209948
H                     2.858907789451     0.899883246091     1.167881033272
H                     0.711640783224     2.185877415966    -1.620878337202
H                     2.054913904024     2.569076743236    -2.723627747250
H                     1.783305186186     3.586176324021    -1.289008871278
H                     3.522049666529    -4.450695196883     2.095541928882
H                     5.149579676601    -4.346821716300     1.486348324321
