56
-2 1 C25FH23O6S
C                     5.700499371246    -5.603293306555     2.829100507199
C                     5.910816689002    -5.818986530303     4.178423615796
C                     2.467877729568    -1.343899936497     7.154150132059
C                     3.658592219719    -2.876387057772     8.639777791104
C                     3.581448443150    -1.315337548925     6.308383076998
C                     4.768475970462    -2.844000147745     7.789370349332
C                     3.657296333523    -1.062384915440    -0.782481127863
C                     1.975533432971    -2.550041577497     0.095786959582
C                     5.732459600396    -3.230521750087     3.135299385547
C                     5.599573005552    -4.308681935604     2.265608657425
C                     4.655733596247    -1.935695601982    -0.322878104811
C                     2.958476265255    -3.430476783206     0.547221677294
C                     4.324502423874    -3.135555295646     0.335926963938
C                     6.052454483175    -4.738384927515     5.131043154548
C                     2.304905214212    -1.364144542043    -0.581845175969
C                     2.536948489739    -2.125760508829     8.303034132101
C                     4.717588331928    -2.059405909445     6.633318670431
C                     5.973706664644    -3.429722806224     4.506089493755
C                     2.317044925724     0.752339342113    -2.844662682905
C                     6.100460767672    -1.542427148957    -0.569702061847
C                     2.540372393294    -4.697410963639     1.261615732503
C                     1.906734045457     1.674188496089    -0.432994294240
C                    -0.008375822182     1.104647314697    -1.956746165587
C                     5.391326061882    -4.129869617011     0.767023491115
C                     1.415159352444     0.734194056646    -1.535695543870
O                     6.202776525175    -4.938002583702     6.376893427920
O                     1.987333428589    -0.080489277230    -3.725209486795
O                     3.227522167278     1.628402300494    -2.864003612528
O                     5.931483821384    -0.791714767471     4.676265693188
O                     7.350903203836    -2.036642372750     6.372079084784
O                     1.244693745995    -0.609579851007    -0.982372786718
F                     1.450612235853    -2.156138995545     9.141315991393
S                     6.144851200164    -1.992656210480     5.520928567081
H                     5.586436736933    -6.465439147718     2.168501697042
H                     5.960966924385    -6.828373279156     4.583462255887
H                     1.567481372086    -0.778515399761     6.932258142341
H                     3.654104574718    -3.479711684891     9.543218129363
H                     3.581234179297    -0.718015961001     5.401894545712
H                     5.653575000140    -3.440548332592     7.976974381062
H                     3.943287548186    -0.163232457786    -1.315927036463
H                     0.922044340990    -2.770850574303     0.253109306982
H                     5.641893778347    -2.212481043509     2.765410325654
H                     6.688714052116    -1.551134913420     0.354849811815
H                     6.593415327304    -2.222806132281    -1.276098529577
H                     6.152684118278    -0.536414751505    -0.994032074116
H                     2.917880409080    -5.593602108580     0.751627127797
H                     2.936254579565    -4.731923128720     2.281522968814
H                     1.449333203951    -4.774570800737     1.308879528456
H                     1.222424439647     1.638667862122     0.425359997500
H                     1.954881170469     2.694280912673    -0.821772509296
H                     2.909023395477     1.412627207741    -0.091124410929
H                    -0.691758452397     1.070089904964    -1.097839889099
H                    -0.343008090573     0.401524839911    -2.722945087481
H                    -0.017976393268     2.115756508913    -2.378737352171
H                     6.343407300408    -3.856927335560     0.300524902709
H                     5.142052564705    -5.115507019652     0.349841165391
