
  -OEChem-05262117483D

 61 64  0     1  0  0  0  0  0999 V2000
   -3.6134    3.6965   -7.3748 C   0  0  0  0  0  0  0  0  0  0  0  0
   -3.3962    3.6677   -6.0024 C   0  0  0  0  0  0  0  0  0  0  0  0
   -2.3292   -2.4341   -1.3865 C   0  0  0  0  0  0  0  0  0  0  0  0
   -4.8683    4.0277   -7.9074 C   0  0  0  0  0  0  0  0  0  0  0  0
   -2.2269   -1.0652   -1.6310 C   0  0  0  0  0  0  0  0  0  0  0  0
   -5.7161    4.3086   -5.6488 C   0  0  0  0  0  0  0  0  0  0  0  0
   -2.7837   -0.5821    0.6875 C   0  0  0  0  0  0  0  0  0  0  0  0
   -4.4594    3.9776   -5.1312 C   0  0  0  0  0  0  0  0  0  0  0  0
   -2.6812   -2.8888   -0.1091 C   0  0  0  0  0  0  0  0  0  0  0  0
   -2.8910   -1.9570    0.9124 C   0  0  0  0  0  0  0  0  0  0  0  0
   -5.9214    4.3344   -7.0352 C   0  0  0  0  0  0  0  0  0  0  0  0
   -2.4574   -0.1361   -0.6019 C   0  0  0  0  0  0  0  0  0  0  0  0
   -3.4336    3.7986   -1.7004 C   0  0  0  0  0  0  0  0  0  0  0  0
   -4.7529    4.1332   -1.5767 C   0  0  0  0  0  0  0  0  0  0  0  0
   -4.2288    3.9489   -3.6901 C   0  0  0  0  0  0  0  0  0  0  0  0
   -2.7953   -5.5394   -1.7828 C   0  0  0  0  0  0  0  0  0  0  0  0
   -3.1790   -2.6585    2.2209 C   0  0  0  0  0  0  0  0  0  0  0  0
   -3.5709   -4.0828    1.7709 C   0  0  0  0  0  0  0  0  0  0  0  0
   -2.8454   -4.3100    0.4166 C   0  0  1  0  0  0  0  0  0  0  0  0
   -5.6675    4.3911   -0.4324 C   0  0  0  0  0  0  0  0  0  0  0  0
   -4.6661   -7.6119   -0.7399 C   0  0  0  0  0  0  0  0  0  0  0  0
   -7.4528    4.7155   -8.8342 C   0  0  0  0  0  0  0  0  0  0  0  0
   -2.4214    3.5433   -0.6232 C   0  0  0  0  0  0  0  0  0  0  0  0
   -3.8869   -6.6408    0.1540 C   0  0  0  0  0  0  0  0  0  0  0  0
   -2.5654    2.1725    0.0372 C   0  0  0  0  0  0  0  0  0  0  0  0
   -3.6063   -5.2781   -0.5144 C   0  0  2  0  0  0  0  0  0  0  0  0
   -3.1203    3.6879   -3.0527 N   0  0  0  0  0  0  0  0  0  0  0  0
   -1.6735   -5.9931   -1.7752 O   0  0  0  0  0  0  0  0  0  0  0  0
   -5.2759    4.2305   -2.8506 O   0  0  0  0  0  0  0  0  0  0  0  0
   -3.4042   -5.2634   -2.9743 O   0  0  0  0  0  0  0  0  0  0  0  0
   -7.1875    4.6722   -7.4361 O   0  0  0  0  0  0  0  0  0  0  0  0
   -2.3314    1.1803   -0.9563 O   0  0  0  0  0  0  0  0  0  0  0  0
   -2.7987    3.4581   -8.0537 H   0  0  0  0  0  0  0  0  0  0  0  0
   -2.4275    3.4109   -5.5875 H   0  0  0  0  0  0  0  0  0  0  0  0
   -2.1184   -3.1224   -2.1987 H   0  0  0  0  0  0  0  0  0  0  0  0
   -5.0055    4.0415   -8.9825 H   0  0  0  0  0  0  0  0  0  0  0  0
   -1.9654   -0.6875   -2.6150 H   0  0  0  0  0  0  0  0  0  0  0  0
   -6.5454    4.5498   -4.9923 H   0  0  0  0  0  0  0  0  0  0  0  0
   -2.9504    0.1144    1.5025 H   0  0  0  0  0  0  0  0  0  0  0  0
   -2.2722   -2.6802    2.8400 H   0  0  0  0  0  0  0  0  0  0  0  0
   -3.9607   -2.1709    2.8127 H   0  0  0  0  0  0  0  0  0  0  0  0
   -3.3267   -4.8451    2.5149 H   0  0  0  0  0  0  0  0  0  0  0  0
   -4.6549   -4.1170    1.6048 H   0  0  0  0  0  0  0  0  0  0  0  0
   -1.8548   -4.7494    0.5940 H   0  0  0  0  0  0  0  0  0  0  0  0
   -6.1524    5.3693   -0.5236 H   0  0  0  0  0  0  0  0  0  0  0  0
   -6.4560    3.6323   -0.3675 H   0  0  0  0  0  0  0  0  0  0  0  0
   -5.1031    4.3752    0.5032 H   0  0  0  0  0  0  0  0  0  0  0  0
   -5.6293   -7.1857   -1.0457 H   0  0  0  0  0  0  0  0  0  0  0  0
   -4.8731   -8.5458   -0.2078 H   0  0  0  0  0  0  0  0  0  0  0  0
   -4.1073   -7.8666   -1.6460 H   0  0  0  0  0  0  0  0  0  0  0  0
   -8.5014    5.0004   -8.9302 H   0  0  0  0  0  0  0  0  0  0  0  0
   -7.2990    3.7350   -9.3018 H   0  0  0  0  0  0  0  0  0  0  0  0
   -6.8264    5.4624   -9.3379 H   0  0  0  0  0  0  0  0  0  0  0  0
   -1.4219    3.6277   -1.0578 H   0  0  0  0  0  0  0  0  0  0  0  0
   -2.5025    4.3009    0.1652 H   0  0  0  0  0  0  0  0  0  0  0  0
   -2.9275   -7.0848    0.4407 H   0  0  0  0  0  0  0  0  0  0  0  0
   -4.4497   -6.4654    1.0756 H   0  0  0  0  0  0  0  0  0  0  0  0
   -1.8374    2.0686    0.8541 H   0  0  0  0  0  0  0  0  0  0  0  0
   -3.5744    2.0545    0.4560 H   0  0  0  0  0  0  0  0  0  0  0  0
   -4.5687   -4.8113   -0.7702 H   0  0  0  0  0  0  0  0  0  0  0  0
   -4.2777   -4.8719   -2.8069 H   0  0  0  0  0  0  0  0  0  0  0  0
  1  2  1  0  0  0  0
  1  4  2  0  0  0  0
  1 33  1  0  0  0  0
  2  8  2  0  0  0  0
  2 34  1  0  0  0  0
  3  5  2  0  0  0  0
  3  9  1  0  0  0  0
  3 35  1  0  0  0  0
  4 11  1  0  0  0  0
  4 36  1  0  0  0  0
  5 12  1  0  0  0  0
  5 37  1  0  0  0  0
  6  8  1  0  0  0  0
  6 11  2  0  0  0  0
  6 38  1  0  0  0  0
  7 10  1  0  0  0  0
  7 12  2  0  0  0  0
  7 39  1  0  0  0  0
  8 15  1  0  0  0  0
  9 10  2  0  0  0  0
  9 19  1  0  0  0  0
 10 17  1  0  0  0  0
 11 31  1  0  0  0  0
 12 32  1  0  0  0  0
 13 14  2  0  0  0  0
 13 23  1  0  0  0  0
 13 27  1  0  0  0  0
 14 20  1  0  0  0  0
 14 29  1  0  0  0  0
 15 27  2  0  0  0  0
 15 29  1  0  0  0  0
 16 26  1  0  0  0  0
 16 28  2  0  0  0  0
 16 30  1  0  0  0  0
 17 18  1  0  0  0  0
 17 40  1  0  0  0  0
 17 41  1  0  0  0  0
 18 19  1  0  0  0  0
 18 42  1  0  0  0  0
 18 43  1  0  0  0  0
 19 26  1  0  0  0  0
 19 44  1  0  0  0  0
 20 45  1  0  0  0  0
 20 46  1  0  0  0  0
 20 47  1  0  0  0  0
 21 24  1  0  0  0  0
 21 48  1  0  0  0  0
 21 49  1  0  0  0  0
 21 50  1  0  0  0  0
 22 31  1  0  0  0  0
 22 51  1  0  0  0  0
 22 52  1  0  0  0  0
 22 53  1  0  0  0  0
 23 25  1  0  0  0  0
 23 54  1  0  0  0  0
 23 55  1  0  0  0  0
 24 26  1  0  0  0  0
 24 56  1  0  0  0  0
 24 57  1  0  0  0  0
 25 32  1  0  0  0  0
 25 58  1  0  0  0  0
 25 59  1  0  0  0  0
 26 60  1  0  0  0  0
 30 61  1  0  0  0  0
M  END
$$$$
