35
0 1 C13H20O2
C                     1.424527090849    -1.545151496116    -0.175839332231
C                     0.481082659414    -0.845829614391     0.570435882469
C                     2.550395639385    -2.080207590424     0.454299741341
C                     0.635891700819    -0.681341524920     1.953712329137
C                     2.746912772211    -1.950215065745     1.834325780494
C                     1.759662998359    -1.257988757193     2.575172293192
C                    -1.777116268203    -0.481884791522     2.706392694212
C                    -0.403757253351     1.600563123541     2.238839339206
C                     4.823338830536    -1.325389730426     3.123426696855
C                     4.927756606923    -3.261885363683     1.534482145818
C                     1.216578693086    -2.010166017618     4.762492426155
C                    -0.371440432846     0.144659956973     2.740688267061
C                     4.021207516597    -2.483887149977     2.500766595929
O                     3.591276152969    -3.405734012616     3.532238047660
O                     1.926499385787    -1.072246090427     3.939267896927
H                     1.294804250752    -1.667109967714    -1.248087555242
H                    -0.382172702314    -0.410535817624     0.072928573164
H                     3.280668106601    -2.605029826112    -0.150066973293
H                    -2.181687390812    -0.498003931534     1.688332381618
H                    -2.470312172283     0.092969905868     3.330848944301
H                    -1.762589491212    -1.513850246055     3.071960286623
H                    -0.754023464461     1.661554152054     1.202698009718
H                     0.592691244996     2.051187591567     2.283145563728
H                    -1.080577334721     2.202816849448     2.855491167374
H                     5.737341530045    -1.710524137045     3.594517500971
H                     5.123694491790    -0.610017046635     2.351441116328
H                     4.227612939449    -0.806238099519     3.874052071025
H                     5.789203209195    -3.647826781423     2.090899234958
H                     5.316353875124    -2.631979609635     0.728678098614
H                     4.399509822084    -4.115597432467     1.102249104745
H                     1.443650824978    -1.738649884625     5.796304164100
H                     1.560491756066    -3.026709496655     4.559528978260
H                     0.134343901256    -1.937525459735     4.599731163633
H                    -0.035790509053     0.174195115136     3.779154303786
H                     4.368447405573    -3.612675105683     4.076360699164
