
  -OEChem-05262117483D

 56 58  0     0  0  0  0  0  0999 V2000
    3.7151   -6.6941   -0.4332 C   0  0  0  0  0  0  0  0  0  0  0  0
    3.4335   -7.9619   -0.9032 C   0  0  0  0  0  0  0  0  0  0  0  0
   -1.9427   -9.8054    1.9662 C   0  0  0  0  0  0  0  0  0  0  0  0
   -0.9971  -11.4258    0.4013 C   0  0  0  0  0  0  0  0  0  0  0  0
   -0.6536   -9.5065    2.4189 C   0  0  0  0  0  0  0  0  0  0  0  0
    0.2893  -11.1229    0.8592 C   0  0  0  0  0  0  0  0  0  0  0  0
    4.2756   -2.0146   -1.0123 C   0  0  0  0  0  0  0  0  0  0  0  0
    1.9369   -2.2844   -0.4845 C   0  0  0  0  0  0  0  0  0  0  0  0
    3.0262   -7.3094    1.7768 C   0  0  0  0  0  0  0  0  0  0  0  0
    3.5247   -6.3324    0.9249 C   0  0  0  0  0  0  0  0  0  0  0  0
    4.5829   -3.1016   -0.1820 C   0  0  0  0  0  0  0  0  0  0  0  0
    2.2270   -3.3778    0.3383 C   0  0  0  0  0  0  0  0  0  0  0  0
    3.5656   -3.7878    0.5158 C   0  0  0  0  0  0  0  0  0  0  0  0
    2.9248   -9.0259   -0.0602 C   0  0  0  0  0  0  0  0  0  0  0  0
    2.9510   -1.5877   -1.1553 C   0  0  0  0  0  0  0  0  0  0  0  0
   -2.0814  -10.7622    0.9653 C   0  0  0  0  0  0  0  0  0  0  0  0
    0.4465  -10.1656    1.8666 C   0  0  0  0  0  0  0  0  0  0  0  0
    2.7452   -8.6101    1.3178 C   0  0  0  0  0  0  0  0  0  0  0  0
    4.5651    1.0230   -2.4114 C   0  0  0  0  0  0  0  0  0  0  0  0
    6.0362   -3.5242   -0.0716 C   0  0  0  0  0  0  0  0  0  0  0  0
    1.0969   -4.1017    1.0380 C   0  0  0  0  0  0  0  0  0  0  0  0
    3.1352    1.1487   -0.2859 C   0  0  0  0  0  0  0  0  0  0  0  0
    2.1412    1.6795   -2.5370 C   0  0  0  0  0  0  0  0  0  0  0  0
    3.8862   -4.9468    1.4455 C   0  0  0  0  0  0  0  0  0  0  0  0
    3.1326    0.7928   -1.7764 C   0  0  0  0  0  0  0  0  0  0  0  0
    2.6455  -10.1819   -0.5071 O   0  5  0  0  0  0  0  0  0  0  0  0
    5.0765    0.0880   -3.0777 O   0  5  0  0  0  0  0  0  0  0  0  0
    5.0143    2.1839   -2.1863 O   0  0  0  0  0  0  0  0  0  0  0  0
    1.8722   -9.0506    3.7720 O   0  0  0  0  0  0  0  0  0  0  0  0
    2.8561  -11.0311    2.5282 O   0  0  0  0  0  0  0  0  0  0  0  0
    2.5688   -0.5492   -1.9644 O   0  0  0  0  0  0  0  0  0  0  0  0
   -3.3431  -11.0641    0.5195 F   0  0  0  0  0  0  0  0  0  0  0  0
    2.1002   -9.7630    2.4864 S   0  0  0  0  0  0  0  0  0  0  0  0
    4.0704   -5.9349   -1.1291 H   0  0  0  0  0  0  0  0  0  0  0  0
    3.5739   -8.2095   -1.9538 H   0  0  0  0  0  0  0  0  0  0  0  0
   -2.8211   -9.3125    2.3727 H   0  0  0  0  0  0  0  0  0  0  0  0
   -1.1600  -12.1551   -0.3871 H   0  0  0  0  0  0  0  0  0  0  0  0
   -0.4900   -8.7728    3.2019 H   0  0  0  0  0  0  0  0  0  0  0  0
    1.1733  -11.5775    0.4278 H   0  0  0  0  0  0  0  0  0  0  0  0
    5.0379   -1.4920   -1.5819 H   0  0  0  0  0  0  0  0  0  0  0  0
    0.9101   -1.9495   -0.6164 H   0  0  0  0  0  0  0  0  0  0  0  0
    2.8401   -7.0822    2.8239 H   0  0  0  0  0  0  0  0  0  0  0  0
    6.4398   -3.3438    0.9334 H   0  0  0  0  0  0  0  0  0  0  0  0
    6.1699   -4.5912   -0.2836 H   0  0  0  0  0  0  0  0  0  0  0  0
    6.6481   -2.9584   -0.7793 H   0  0  0  0  0  0  0  0  0  0  0  0
    1.0735   -5.1624    0.7674 H   0  0  0  0  0  0  0  0  0  0  0  0
    1.2025   -4.0616    2.1301 H   0  0  0  0  0  0  0  0  0  0  0  0
    0.1311   -3.6560    0.7795 H   0  0  0  0  0  0  0  0  0  0  0  0
    2.1292    1.0395    0.1412 H   0  0  0  0  0  0  0  0  0  0  0  0
    3.4783    2.1791   -0.1763 H   0  0  0  0  0  0  0  0  0  0  0  0
    3.8168    0.5021    0.2747 H   0  0  0  0  0  0  0  0  0  0  0  0
    1.1363    1.5984   -2.1017 H   0  0  0  0  0  0  0  0  0  0  0  0
    2.0925    1.3600   -3.5835 H   0  0  0  0  0  0  0  0  0  0  0  0
    2.4819    2.7166   -2.5004 H   0  0  0  0  0  0  0  0  0  0  0  0
    3.3651   -4.8000    2.4001 H   0  0  0  0  0  0  0  0  0  0  0  0
    4.9530   -4.9209    1.6933 H   0  0  0  0  0  0  0  0  0  0  0  0
  1  2  1  0  0  0  0
  1 10  2  0  0  0  0
  1 34  1  0  0  0  0
  2 14  2  0  0  0  0
  2 35  1  0  0  0  0
  3  5  2  0  0  0  0
  3 16  1  0  0  0  0
  3 36  1  0  0  0  0
  4  6  1  0  0  0  0
  4 16  2  0  0  0  0
  4 37  1  0  0  0  0
  5 17  1  0  0  0  0
  5 38  1  0  0  0  0
  6 17  2  0  0  0  0
  6 39  1  0  0  0  0
  7 11  2  0  0  0  0
  7 15  1  0  0  0  0
  7 40  1  0  0  0  0
  8 12  1  0  0  0  0
  8 15  2  0  0  0  0
  8 41  1  0  0  0  0
  9 10  1  0  0  0  0
  9 18  2  0  0  0  0
  9 42  1  0  0  0  0
 10 24  1  0  0  0  0
 11 13  1  0  0  0  0
 11 20  1  0  0  0  0
 12 13  2  0  0  0  0
 12 21  1  0  0  0  0
 13 24  1  0  0  0  0
 14 18  1  0  0  0  0
 14 26  1  0  0  0  0
 15 31  1  0  0  0  0
 16 32  1  0  0  0  0
 17 33  1  0  0  0  0
 18 33  1  0  0  0  0
 19 25  1  0  0  0  0
 19 27  1  0  0  0  0
 19 28  2  0  0  0  0
 20 43  1  0  0  0  0
 20 44  1  0  0  0  0
 20 45  1  0  0  0  0
 21 46  1  0  0  0  0
 21 47  1  0  0  0  0
 21 48  1  0  0  0  0
 22 25  1  0  0  0  0
 22 49  1  0  0  0  0
 22 50  1  0  0  0  0
 22 51  1  0  0  0  0
 23 25  1  0  0  0  0
 23 52  1  0  0  0  0
 23 53  1  0  0  0  0
 23 54  1  0  0  0  0
 24 55  1  0  0  0  0
 24 56  1  0  0  0  0
 25 31  1  0  0  0  0
 29 33  2  0  0  0  0
 30 33  2  0  0  0  0
M  CHG  2  26  -1  27  -1
M  END
$$$$
