60
-1 1 C26H28NO5
C                     6.464479426637     4.513513278509     0.050371611377
C                     5.167499596077     4.268735252864    -0.389842295175
C                    -2.962715371596     1.861217984245    -5.324742736232
C                     6.970592718460     3.897170585085     1.202992062910
C                    -2.057911481251     1.529911668708    -4.312659474941
C                     4.841691405300     2.761670323384     1.489883296881
C                    -3.539744823277     2.463068249571    -2.622845794016
C                     4.346900918253     3.383707487481     0.337300104715
C                    -4.162709433937     2.500258183632    -4.987588187001
C                    -4.434326830281     2.793619889613    -3.646759351613
C                     6.148037127436     3.016769950523     1.921632066721
C                    -2.340855206692     1.827199012324    -2.971658339454
C                     0.958463586654     2.401471133231    -0.330037311544
C                     1.201068837131     3.271256261276    -1.362280769324
C                     2.980355917255     3.099960153528    -0.091373711605
C                    -4.386423978761     2.275234126299    -8.154769160672
C                    -5.782166014852     3.473091021806    -3.524186679901
C                    -6.038019999980     3.969722579870    -4.965811936228
C                    -5.305015724208     2.955529086865    -5.885786919152
C                     0.475777784880     3.793262692107    -2.557438130792
C                    -5.696059532115     4.681931752336    -9.380071419453
C                     7.856099680266     2.573654433032     3.537383311765
C                    -0.244978155175     1.583304283987     0.045524702676
C                    -6.068919752708     4.167669766481    -7.983846260444
C                    -1.527492540381     1.890749909135    -0.711647572568
C                    -4.895000828630     3.474281935119    -7.274492215992
N                     2.102514754109     2.310794088716     0.463760091049
O                    -5.257485519280     1.395863857976    -8.404781913121
O                    -3.172898759892     2.311835197252    -8.507733159537
O                     2.504339785668     3.721969133647    -1.208662672982
O                     6.534524539638     2.356671361000     3.062338135690
O                    -1.358815230105     1.473782503444    -2.057764343528
H                     7.102225602532     5.194515113994    -0.507679693409
H                     4.784834758957     4.748555348371    -1.284126423035
H                    -2.728994741897     1.657242241513    -6.366941446124
H                     7.985560133135     4.107757142914     1.520289676529
H                    -1.113704045072     1.043941263987    -4.546309411856
H                     4.213222224501     2.078418077142     2.051523264548
H                    -3.780584447532     2.700726730316    -1.590969294173
H                    -6.546677210700     2.740378460263    -3.225954400415
H                    -5.796598656510     4.276072908736    -2.776878648872
H                    -7.102670301893     4.063678342881    -5.199592103654
H                    -5.580008583225     4.959830757343    -5.090809615425
H                    -5.964234127985     2.093820070907    -6.067671264915
H                     0.934887535395     4.731505184559    -2.880628291404
H                     0.511101448505     3.084172130281    -3.389822325946
H                    -0.577347487185     3.979130218236    -2.347026598325
H                    -5.375479601595     3.854529956416   -10.019383208460
H                    -6.547847036301     5.180922641702    -9.861487629846
H                    -4.867748932545     5.399632143800    -9.327840274066
H                     7.955822638774     1.961217162673     4.435148076269
H                     8.023146934229     3.626924149307     3.797816351965
H                     8.606018909782     2.259334780042     2.799992855429
H                    -0.005404042344     0.520816237200    -0.082161710053
H                    -0.429671500574     1.729929398742     1.116443262110
H                    -6.439352304055     5.008733404533    -7.379899987688
H                    -6.886568870845     3.442352239494    -8.072991146431
H                    -2.368127814773     1.352887461076    -0.250195276252
H                    -1.755270240123     2.964891501747    -0.663052694843
H                    -4.070224799446     4.190658642707    -7.156957702918
