20   
torsion grid (-165,)
C       -0.4101336049   -2.1179943257   -2.0487219137
C       -0.0396515597    0.7091082417   -1.2625609056
C       -0.8255109749    0.2708741278   -0.0315321618
C        0.4739351235   -0.4045871728   -0.3665026085
C       -2.6197572643   -2.5948146322   -2.7506487466
C        0.4838310249   -1.8558759515   -0.8585550019
N        1.6024031077   -0.1793410840    0.5241221563
O       -0.0559480331   -2.0917263527   -3.2122840956
O       -1.6894485503   -2.3720851554   -1.6706118002
H       -0.4380637876    0.4677789678   -2.2435553356
H        0.4825371824    1.6609466150   -1.2137252203
H       -0.8416471973    0.9371722146    0.8278328882
H       -1.7444344485   -0.2856344685   -0.1845730633
H       -3.5814474539   -2.7817822277   -2.2729699389
H       -2.3109522652   -3.4561627894   -3.3473442723
H       -2.6736325689   -1.7140363934   -3.3951433754
H        0.2105026450   -2.5091644371   -0.0258225133
H        1.5003502502   -2.1034609325   -1.1755660557
H        1.4620590916    0.6702667572    1.0666051491
H        2.4509280908   -0.0429861019   -0.0251015304
20   
torsion grid (-150,)
C       -0.3729634430   -2.1624322665   -1.9883228822
C       -0.2200790443    0.6489300097   -1.1965186987
C       -0.7998876185    0.2608564099    0.1569125255
C        0.4548444577   -0.4050430007   -0.3313430379
C       -2.5487027424   -2.4732415556   -2.8697100056
C        0.4253552583   -1.8865240728   -0.7357759876
N        1.6987589072   -0.0959721751    0.3575891529
O        0.0874885690   -2.2602011563   -3.1094001261
O       -1.7014282552   -2.2640639700   -1.7210891822
H       -0.7630890377    0.3537095276   -2.0894445822
H        0.2808832855    1.6099804919   -1.2764485113
H       -0.7153246811    0.9700444307    0.9771564235
H       -1.7129073601   -0.3266690898    0.1605848550
H       -3.5646689869   -2.5219469637   -2.4779679591
H       -2.2839307789   -3.4057727839   -3.3733521397
H       -2.4466061271   -1.6447485339   -3.5749607236
H        0.0486083995   -2.4846239485    0.0984510035
H        1.4491071420   -2.2010968281   -0.9481274145
H        1.6210721409    0.7926576632    0.8480738870
H        2.4495842153    0.0075774608   -0.3249746891
20   
torsion grid (-135,)
C       -0.3833385175   -2.1834249040   -1.9355030296
C       -0.3503123326    0.6215923583   -1.1105125879
C       -0.7293080678    0.3135890267    0.3303167823
C        0.4283104924   -0.4068633158   -0.3018060518
C       -2.4705141188   -2.5072310992   -3.0046333847
C        0.3015199856   -1.9086928065   -0.6172931913
N        1.7629945506   -0.0901185153    0.1861917732
O        0.1738995361   -2.2642561545   -3.0132133138
O       -1.7287686140   -2.2989517799   -1.7848771572
H       -1.0296788077    0.2971692413   -1.8928553565
H        0.1499203433    1.5645404789   -1.3144063270
H       -0.5139634234    1.0575828911    1.0939106790
H       -1.6422014092   -0.2509268253    0.4977284166
H       -3.5160113368   -2.5709793094   -2.7032500689
H       -2.1515566807   -3.4320604009   -3.4907789328
H       -2.3169732648   -1.6715141632   -3.6918508622
H       -0.2172402275   -2.4224748889    0.1957405586
H        1.3086812960   -2.3214444077   -0.6938258327
H        1.7762503861    0.8436201924    0.5924049833
H        2.4146118420   -0.0766689150   -0.5990183056
20   
torsion grid (-120,)
C       -0.3990526504   -2.1530555790   -1.9290472350
C       -0.4816334582    0.6366323092   -0.9929832330
C       -0.6151017380    0.3772182128    0.4999634400
C        0.4021556141   -0.3900115911   -0.3005034728
C       -2.3797106173   -2.5491922546   -3.1611517838
C        0.1765730151   -1.8918302382   -0.5560964318
N        1.8041688939   -0.1013826248   -0.0318842933
O        0.2382464346   -2.1573102015   -2.9654128421
O       -1.7420370583   -2.3473766367   -1.8824209240
H       -1.2896304099    0.3013088812   -1.6368689521
H       -0.0088675877    1.5624145937   -1.3098094415
H       -0.2522176281    1.1346926729    1.1909394479
H       -1.4988824561   -0.1536048081    0.8424942221
H       -3.4393039507   -2.6795076724   -2.9414056226
H       -1.9750761665   -3.4372239438   -3.6520946997
H       -2.2224056781   -1.6815150339   -3.8064563673
H       -0.4740046976   -2.3215469479    0.2084311470
H        1.1452907816   -2.3911029542   -0.5020957826
H        1.9078794105    0.8639835298    0.2766582671
H        2.3336948703   -0.1845628060   -0.9010409354
20   
torsion grid (-105,)
C       -0.3931274235   -2.1142557955   -1.8813587089
C       -0.5506773868    0.6828044972   -0.8420027429
C       -0.4623416833    0.4615688324    0.6616939336
C        0.3885441058   -0.3638232463   -0.2655290056
C       -2.2110328861   -2.6777774197   -3.2839850248
C        0.0507170922   -1.8475393802   -0.4600884049
N        1.8265181141   -0.1436650269   -0.2047069591
O        0.3224131826   -2.0135086591   -2.8615609539
O       -1.7057966801   -2.4465951057   -1.9515922812
H       -1.4566459932    0.3596792835   -1.3485108295
H       -0.1017041826    1.5831205097   -1.2525942324
H        0.0352164201    1.2177678522    1.2644812440
H       -1.3026352132   -0.0181474396    1.1556715714
H       -3.2648988777   -2.9250843867   -3.1569629928
H       -1.6744376373   -3.5040118001   -3.7559564096
H       -2.0948117102   -1.7800311623   -3.8956614148
H       -0.7316286803   -2.1669684082    0.2309948758
H        0.9500646033   -2.4337452694   -0.2592513349
H        2.0187475385    0.8372789211   -0.0065992826
H        2.2247683998   -0.3325776826   -1.1265181082
20   
torsion grid (-90,)
C       -0.4539120733   -2.0866181163   -1.9500048562
C       -0.5207720888    0.7491235254   -0.6920817408
C       -0.2571409442    0.4470711247    0.7775660017
C        0.3799649880   -0.4032794225   -0.2899703684
C       -1.9844137778   -3.0540932435   -3.4702431388
C       -0.1370973099   -1.8225272095   -0.4924846582
N        1.8275199468   -0.3321022941   -0.4144972396
O        0.2554721616   -1.7561993112   -2.8839124691
O       -1.6285842907   -2.7424523340   -2.1060898603
H       -1.5101158960    0.5293064599   -1.0866045993
H       -0.0498370384    1.6262098901   -1.1270807280
H        0.3887027834    1.1246441495    1.3309322466
H       -1.0659193760    0.0254269598    1.3678716227
H       -2.9434735245   -3.5683916912   -3.4103802638
H       -1.2277223469   -3.6993168940   -3.9226769543
H       -2.0725526309   -2.1381237938   -4.0589023515
H       -1.0320195496   -2.0126462392    0.1037413013
H        0.6366513958   -2.5279715152   -0.1728670493
H        2.1486782763    0.6102546573   -0.1984606055
H        2.0730893885   -0.5056664193   -1.3910239816
20   
torsion grid (-75,)
C       -0.6348555150   -1.8548071548   -1.9443577498
C       -0.4805438831    1.0367899474   -0.4614243854
C       -0.0945550217    0.5857641577    0.9418651222
C        0.3040505514   -0.2443500806   -0.2491405620
C       -1.8674915015   -3.1490864750   -3.4932397364
C       -0.4160021326   -1.5600900055   -0.4732342799
N        1.7208003422   -0.3381693781   -0.5595152504
O       -0.0044636480   -1.3664074602   -2.8650978598
O       -1.6234265386   -2.7632137149   -2.1239015411
H       -1.5270803153    0.9723184349   -0.7493405879
H        0.0506880655    1.8826183313   -0.8884991214
H        0.6903942371    1.1347769971    1.4563180042
H       -0.8775615148    0.2164028766    1.5984893103
H       -2.6761781732   -3.8784901116   -3.4500357000
H       -0.9697920832   -3.5934857765   -3.9294966128
H       -2.1623240234   -2.2806416514   -4.0868282380
H       -1.3874720786   -1.5791550385    0.0283485446
H        0.1800698718   -2.3780724197   -0.0520196628
H        2.2005228694    0.5098839770   -0.2642998143
H        1.8221542789   -0.4024500091   -1.5731105978
20   
torsion grid (-60,)
C       -0.7909336642   -1.7671474062   -1.9998481145
C       -0.3861923281    1.1689339061   -0.3168831366
C        0.0712107262    0.5441158404    0.9952106028
C        0.2469008271   -0.2119824572   -0.2930462565
C       -1.7703157320   -3.2950345006   -3.5167160862
C       -0.6535601836   -1.4064042391   -0.5330539939
N        1.5974820888   -0.4345841607   -0.7788599379
O       -0.2758765619   -1.1812433098   -2.9350704175
O       -1.5828214609   -2.8549577040   -2.1551752625
H       -1.4542459054    1.2591955929   -0.4977864581
H        0.2084119758    1.9818151770   -0.7239635837
H        0.9637074757    0.9469474981    1.4677511086
H       -0.6850396073    0.2057869861    1.6985594322
H       -2.4220351853   -4.1663204720   -3.4532973991
H       -0.8109387828   -3.5630955874   -3.9654065975
H       -2.2370158820   -2.5066817058   -4.1119978077
H       -1.6591914791   -1.2355787457   -0.1350169053
H       -0.2556002286   -2.2855660597   -0.0133318365
H        2.2228826993    0.2846312647   -0.4226100767
H        1.5920737113   -0.3623375600   -1.7957167449
20   
torsion grid (-45,)
C       -0.8842059750   -1.7217427970   -2.0560787651
C       -0.3033093347    1.2476017085   -0.1877063246
C        0.1553943038    0.4516954283    1.0273403372
C        0.1774241991   -0.1886573692   -0.3320691273
C       -1.5663789618   -3.4552722147   -3.5109689631
C       -0.8607923241   -1.2633238243   -0.6110768676
N        1.4640990837   -0.4842345963   -0.9366909255
O       -0.4713642116   -1.0924778922   -3.0139549712
O       -1.4644919637   -2.9398316704   -2.1669911122
H       -1.3631972202    1.4663414496   -0.2879148318
H        0.3539407552    2.0312809789   -0.5540701356
H        1.1097719609    0.7119955089    1.4785743638
H       -0.5944423640    0.1217047719    1.7416538173
H       -2.0529430182   -4.4256745846   -3.4136380606
H       -0.5728008917   -3.5644614975   -3.9516696761
H       -2.1635195033   -2.7845141642   -4.1333371111
H       -1.8678104821   -0.9129253479   -0.3595165043
H       -0.6693825222   -2.1450816299    0.0093824781
H        2.1851826516    0.1158618914   -0.5433888656
H        1.4101968872   -0.2952032897   -1.9363016378
20   
torsion grid (-30,)
C       -0.9943946172   -1.6738709482   -2.1210903567
C       -0.1843332783    1.2743607278   -0.0655826372
C        0.2591734874    0.3003823939    1.0179367767
C        0.1263897014   -0.1779351787   -0.4000475564
C       -1.3823745991   -3.5835871643   -3.4542812521
C       -1.0455954743   -1.1094102034   -0.7157857460
N        1.3366140129   -0.5212613879   -1.1255579766
O       -0.6945280363   -1.0468693312   -3.1222265826
O       -1.3671864211   -2.9736363351   -2.1465414118
H       -1.2184749689    1.6088229985   -0.0605327000
H        0.5303261993    2.0252354685   -0.3914705210
H        1.2614560961    0.4079965522    1.4258433489
H       -0.4788960291   -0.0325202664    1.7431202727
H       -1.7064098662   -4.6113950608   -3.2914559854
H       -0.3830189700   -3.5588405191   -3.8945712575
H       -2.0783769708   -3.0583346848   -4.1126926350
H       -1.9991599295   -0.5812852431   -0.6117335071
H       -1.0615265241   -1.9517271687   -0.0186241919
H        2.1366346645   -0.0362140857   -0.7262980971
H        1.2426164675   -0.2259916009   -2.0960178573
20   
torsion grid (-15,)
C       -0.8049183406   -2.5485669808    1.0654202650
C       -0.3959953301    0.6349192666   -0.8040080993
C        0.1364503085    1.1931602316    0.5109591919
C        0.0296666495   -0.3045238816    0.2910211877
C       -1.0671411475   -4.5428727984   -0.1642746056
C       -1.0585634287   -1.0551816778    1.0797888291
N        1.2011134432   -1.1235198669    0.0231248045
O       -0.1645432285   -3.1463773526    1.9106336930
O       -1.3711482813   -3.1425054814   -0.0079904481
H       -1.4567747111    0.7372389968   -1.0136763105
H        0.2384816640    0.7104108110   -1.6840086998
H        1.1298267665    1.6344084477    0.5086410908
H       -0.5697557513    1.6749565626    1.1830662405
H       -1.5784813014   -4.8526234280   -1.0758452478
H       -1.4302289082   -5.1127262743    0.6944577130
H        0.0121290436   -4.6819718885   -0.2606890428
H       -2.0467674173   -0.8365167626    0.6698025572
H       -1.0388030469   -0.7495339535    2.1290813072
H        1.7100443140   -1.3065822317    0.8881971761
H        1.8370009985   -0.6341671845   -0.6029711904
20   
torsion grid (0,)
C       -0.8022438546   -2.5240781145    0.9847450674
C       -0.3568745855    0.8551668703   -0.7235326261
C        0.1976445678    1.1839798776    0.6570838246
C        0.0034819189   -0.2581819399    0.2212765600
C       -1.0602336100   -4.6542105677    0.0084459747
C       -1.1450068641   -1.0526301252    0.8805182986
N        1.1388741537   -1.0890965473   -0.1457219586
O       -0.0628402355   -2.9989863217    1.8286022216
O       -1.4143638407   -3.2564288947    0.0292098339
H       -1.4090021150    1.0492595706   -0.9122907573
H        0.2856950371    1.0198609754   -1.5854370325
H        1.2157130675    1.5600448471    0.7172417980
H       -0.4838284998    1.6064606658    1.3914857418
H       -1.6250624247   -5.0854811364   -0.8180697038
H       -1.3312651195   -5.1322520027    0.9528253078
H        0.0136870302   -4.7656724162   -0.1577652690
H       -2.0696950183   -0.9337861701    0.3123125732
H       -1.3119768288   -0.6967188605    1.9001026162
H        1.6417068085   -1.3850148035    0.6906525774
H        1.7893790314   -0.5607069314   -0.7228554546
20   
torsion grid (15,)
C       -0.7897640168   -2.5244116766    0.8496942608
C       -0.3204731254    1.0334659909   -0.6226341193
C        0.2133295368    1.1213663955    0.8011302728
C       -0.0062663595   -0.2272089537    0.1331798414
C       -1.1167618822   -4.7689135236    0.2028989069
C       -1.1931789713   -1.0836561478    0.6138151396
N        1.1260571623   -1.0181176797   -0.3187720794
O        0.0385761835   -2.8855930173    1.6677941526
O       -1.4722759281   -3.3784489117    0.0561217800
H       -1.3645283230    1.2812541223   -0.7944061373
H        0.3418782523    1.3171270237   -1.4372878012
H        1.2392830586    1.4535685281    0.9364315855
H       -0.4709370638    1.4411466350    1.5829727695
H       -1.7494963591   -5.3066127982   -0.5031541433
H       -1.3045329046   -5.1058749565    1.2251180166
H       -0.0608506476   -4.9142618103   -0.0362115112
H       -2.0012509098   -1.0647010551   -0.1208297616
H       -1.5816629581   -0.6991513753    1.5608776977
H        1.6043134189   -1.4243538254    0.4843678976
H        1.7930013810   -0.4285925876   -0.8113955986
20   
torsion grid (30,)
C       -0.7449869596   -2.5439151162    0.6974025755
C       -0.3287439941    1.1768918804   -0.4449385909
C        0.1784013474    1.0113661156    0.9815086093
C       -0.0030422915   -0.1957084227    0.0717673755
C       -1.2322707838   -4.8391151770    0.4336724686
C       -1.1789169636   -1.1344787116    0.3491025154
N        1.1533417369   -0.8804968385   -0.4784344447
O        0.1861955211   -2.8346876961    1.4279336204
O       -1.5517528957   -3.4661274797    0.1249819183
H       -1.3742698722    1.4352236975   -0.5919167640
H        0.3417793840    1.6149616370   -1.1804877529
H        1.1961195729    1.3271175267    1.1943582471
H       -0.5231327647    1.1731496190    1.7957664713
H       -1.9741766995   -5.4360611997   -0.0965457346
H       -1.2939932027   -5.0128214634    1.5106273837
H       -0.2243613499   -5.0796097106    0.0880416611
H       -1.8336979617   -1.1936469574   -0.5247095147
H       -1.7819365592   -0.7637816164    1.1845542761
H        1.6217858436   -1.3990417640    0.2628372613
H        1.8151987442   -0.2068471926   -0.8563949018
20   
torsion grid (45,)
C       -0.7039243006   -2.5213326688    0.5690974179
C       -0.3561421527    1.2792813534   -0.2948775399
C        0.1256263095    0.8958303246    1.0983484510
C        0.0038970536   -0.1497255795   -0.0001873669
C       -1.3043759844   -4.8060504760    0.6510249929
C       -1.1374747375   -1.1495690463    0.0905316792
N        1.1877245887   -0.7084945684   -0.6285148123
O        0.3000968560   -2.7713927556    1.2120207019
O       -1.6076360977   -3.4646787831    0.2138846457
H       -1.4052031044    1.5308350240   -0.4274834811
H        0.3176044712    1.8492384311   -0.9300305429
H        1.1279827812    1.2002868532    1.3863431489
H       -0.5964814042    0.9004333571    1.9106231730
H       -2.1254741805   -5.4229325476    0.2861240025
H       -1.2443831397   -4.8484019368    1.7411819656
H       -0.3542952745   -5.1378022230    0.2260262231
H       -1.6073359991   -1.2780309034   -0.8901986800
H       -1.9191566188   -0.7943521817    0.7709296638
H        1.6589367266   -1.3176286202    0.0383993700
H        1.8344832703    0.0333873395   -0.8855717430
20   
torsion grid (60,)
C       -0.6413647953   -2.5318523798    0.4360363029
C       -0.3856506516    1.2904720175   -0.1829521294
C        0.0839902043    0.7216240172    1.1501336097
C        0.0364057492   -0.1504196744   -0.0927989053
C       -1.3525220000   -4.7472091577    0.8612629609
C       -1.0483178862   -1.2048540543   -0.1755598990
N        1.2496601732   -0.5533535806   -0.7821513374
O        0.4269781457   -2.7821009475    0.9644025998
O       -1.6404834542   -3.4394655066    0.3233904786
H       -1.4414974121    1.5170109047   -0.3052098566
H        0.2757734480    1.9768186325   -0.7059734040
H        1.0639833936    1.0210792096    1.5107113921
H       -0.6552619376    0.5700519666    1.9325842534
H       -2.2517665442   -5.3377097117    0.6864052778
H       -1.1360699272   -4.6813399241    1.9301348610
H       -0.4952524902   -5.1893709786    0.3482333647
H       -1.3081028833   -1.3918385369   -1.2238958453
H       -1.9665014908   -0.8746304640    0.3210918735
H        1.7308513470   -1.2481741631   -0.2121652148
H        1.8741221737    0.2427287937   -0.8900225201
20   
torsion grid (75,)
C       -0.6047773389   -2.5115372434    0.2823710925
C       -0.4668465538    1.2920714056   -0.0211654245
C        0.0189884885    0.5427095823    1.2133605758
C        0.0471146776   -0.1168322351   -0.1527222859
C       -1.4315618056   -4.6043148136    1.0105879254
C       -0.9580129415   -1.2188311786   -0.4269206373
N        1.2867721816   -0.3146999235   -0.8851245851
O        0.5020318383   -2.8148349271    0.6906299153
O       -1.6834499954   -3.3229198563    0.3956638451
H       -1.5329897541    1.4721746538   -0.1287916734
H        0.1575368011    2.0924917767   -0.4106455170
H        0.9712567250    0.8367833204    1.6454856337
H       -0.7226199648    0.2190594808    1.9396930074
H       -2.3920671489   -5.1193811235    1.0131977901
H       -1.0620907215   -4.4714255235    2.0300493298
H       -0.6940422897   -5.1658770052    0.4323249370
H       -0.9890786922   -1.4241627932   -1.5033470876
H       -1.9682156890   -0.9278148641   -0.1260853925
H        1.7884038455   -1.0948706714   -0.4591203121
H        1.8809017736    0.5071929348   -0.7957784689
20   
torsion grid (90,)
C       -0.5441581004   -2.5516311434    0.1267279392
C       -0.5492380403    1.1770736664    0.1228172641
C        0.0095619081    0.2955413652    1.2322996771
C        0.0837199447   -0.1471102424   -0.2164340784
C       -1.4982254973   -4.4225749103    1.2125031696
C       -0.8212918834   -1.2889079057   -0.6627657300
N        1.3250969309   -0.1123167505   -0.9739741012
O        0.5675243474   -2.9616756705    0.4104728650
O       -1.6840461302   -3.1898280542    0.4843121713
H       -1.6276832059    1.2780103739    0.0387787045
H        0.0022776541    2.0769000691   -0.1390760863
H        0.9346503788    0.6030799314    1.7118698192
H       -0.6965281071   -0.1971340432    1.8967476653
H       -2.5022693385   -4.7965419290    1.4123517698
H       -0.9622889373   -4.2356438203    2.1458894229
H       -0.9320373371   -5.1379152633    0.6114514036
H       -0.6331059067   -1.4952779785   -1.7214682204
H       -1.8768512220   -1.0302684880   -0.5552855529
H        1.8817927062   -0.9279623094   -0.7115030821
H        1.8701492425    0.7067820496   -0.7095154032
20   
torsion grid (105,)
C       -0.8355550143   -2.4389396622    0.6162058465
C       -0.5083176898    1.1240460300    0.0361429346
C        0.1438325853    0.3387731428    1.1654507226
C        0.0532859808   -0.2459413972   -0.2350653313
C        0.5744736222   -4.0321689493    1.6568056319
C       -0.9191700410   -1.4054754558   -0.4841492011
N        1.2163470959   -0.3165987430   -1.1083411074
O       -1.6953834060   -2.6636002175    1.4463413875
O        0.3641530507   -3.0778085835    0.5958577718
H       -1.5873734404    1.2462701490    0.0568613025
H        0.0295117141    1.9772012863   -0.3707341032
H        1.1225564755    0.6631193669    1.5092486553
H       -0.5013152337   -0.0582192755    1.9450590210
H        1.5713076470   -4.4404529566    1.4898020654
H       -0.1777748083   -4.8231218031    1.6129911841
H        0.5185700303   -3.5377418088    2.6296254668
H       -0.6752861682   -1.8577178380   -1.4485385850
H       -1.9523072203   -1.0562066598   -0.5129995831
H        1.7831584564   -1.1213538640   -0.8353931960
H        1.8022170400    0.5058916090   -0.9723451685
20   
torsion grid (120,)
C       -0.8254711620   -2.4004931198    0.5954947365
C       -0.5335065818    1.0742915672    0.1807693575
C        0.2998522568    0.2576210233    1.1561765417
C        0.0978425092   -0.2125902052   -0.2772048730
C        0.4475604810   -4.0024929911    1.7844864245
C       -0.8066529992   -1.4255289713   -0.5582132656
N        1.1726219178   -0.1042339320   -1.2545688605
O       -1.7340767536   -2.5356021316    1.3935526141
O        0.3362527066   -3.0992724673    0.6657541184
H       -1.6096338339    1.0894317735    0.3280422676
H       -0.1209395499    2.0065123530   -0.1982365660
H        1.2862834783    0.6309524888    1.4184985718
H       -0.2234018326   -0.2474462971    1.9635067698
H        1.4277832932   -4.4692638456    1.6869351109
H       -0.3430717877   -4.7555437862    1.7476492591
H        0.3748659438   -3.4528780952    2.7261628120
H       -0.4327578037   -1.9240507912   -1.4549511468
H       -1.8364368906   -1.1145606135   -0.7413917293
H        1.8636531640   -0.8336464008   -1.0724874040
H        1.6569807184    0.7849071046   -1.1421815123
20   
torsion grid (135,)
C       -0.7887898214   -2.3692580236    0.6032208885
C       -0.5640415293    0.9896823866    0.3040847754
C        0.4569727026    0.2123027704    1.1200842109
C        0.1349447940   -0.1888441860   -0.3137332236
C        0.3124857910   -4.0083461618    1.9045995772
C       -0.6710505070   -1.4689051331   -0.6029395173
N        1.0887166575    0.0839988479   -1.3799355388
O       -1.7166172338   -2.3751514474    1.3916594838
O        0.3029829652   -3.1625250884    0.7364408428
H       -1.6101970317    0.8705590457    0.5713756491
H       -0.2998148298    1.9841953048   -0.0481465637
H        1.4262417900    0.6726656795    1.2925961776
H        0.0858397362   -0.3843892813    1.9480980773
H        1.2495714226   -4.5629274585    1.8556371850
H       -0.5406883732   -4.6905611277    1.8886622581
H        0.2697094682   -3.4035790080    2.8137247901
H       -0.1631104814   -2.0106447786   -1.4033180571
H       -1.6778006096   -1.2190824964   -0.9434655268
H        1.8885949577   -0.5427170392   -1.2858482338
H        1.4501131236    1.0321738528   -1.2933004956
20   
torsion grid (150,)
C       -2.3477705617   -1.0518409346    0.0855596414
C       -0.1838342588    1.3147587938   -0.5302006478
C       -0.2894140099    0.8522444339    0.9168444860
C        0.0183678332   -0.1363406846   -0.1971479102
C       -4.4027159862    0.1210220710    0.1811283046
C       -1.0260793510   -1.1735702104   -0.6358872473
N        1.3600246075   -0.6822519805   -0.3380895004
O       -2.6753533821   -1.6932158106    1.0651914943
O       -3.1393172764   -0.1019344751   -0.4783639637
H       -1.1040610100    1.5924868484   -1.0349425607
H        0.6872561975    1.8959588949   -0.8237447966
H        0.5256165768    1.1014501302    1.5910502252
H       -1.2702179442    0.8563666422    1.3831230101
H       -4.8955530800    0.9074197193   -0.3904685446
H       -4.2429013854    0.4378702558    1.2146979360
H       -5.0012710800   -0.7928197950    0.1761719478
H       -0.6379905329   -2.1666903722   -0.4006884935
H       -1.1719523398   -1.1090779101   -1.7175319974
H        1.5577394060   -1.3067597514    0.4437390445
H        2.0518320235    0.0636172258   -0.3025738803
20   
torsion grid (165,)
C       -2.3786277892   -1.0106293173    0.1503270409
C       -0.2938640346    1.2977938200   -0.3748853905
C       -0.1727476397    0.7467640666    1.0417492273
C        0.0130371442   -0.1576480588   -0.1643194223
C       -4.4530267788    0.1198978441    0.0043998903
C       -1.0335362730   -1.2239134946   -0.5051382627
N        1.3371530481   -0.6302663216   -0.5398328513
O       -2.7323201552   -1.5045846672    1.2043249286
O       -3.1626376438   -0.1696417707   -0.5723394716
H       -1.2818594211    1.5648319066   -0.7355694014
H        0.5067121466    1.9337065750   -0.7456106804
H        0.7185844080    1.0035420961    1.6079702284
H       -1.0741332601    0.6616727317    1.6414073085
H       -4.9403638887    0.7970670453   -0.6969733994
H       -4.3359754660    0.5948726729    0.9815115785
H       -5.0327235346   -0.7986874608    0.1204988243
H       -0.6666199778   -2.1904857892   -0.1499257872
H       -1.1428249821   -1.2714508123   -1.5917580018
H        1.6853648149   -1.2744620813    0.1701063474
H        1.9928878503    0.1470547950   -0.5801529531
20   
torsion grid (180,)
C       -2.4151849464   -0.8712633030    0.1946170939
C       -0.3300024563    1.3163614847   -0.1794792714
C        0.0096446482    0.6482186429    1.1494684363
C        0.0136236611   -0.1465972267   -0.1422045823
C       -4.5279784961    0.1155023308   -0.1996598631
C       -1.0669804405   -1.1987344475   -0.4055492780
N        1.2648057635   -0.5602414680   -0.7613193832
O       -2.7492121504   -1.1024704086    1.3423541042
O       -3.2283762423   -0.2589635072   -0.7023351210
H       -1.3605199206    1.6018088380   -0.3660679332
H        0.4008445517    1.9959174368   -0.6114380222
H        0.9770527912    0.8751844948    1.5897864980
H       -0.7901399963    0.4893588609    1.8658711114
H       -5.0408241259    0.5841749352   -1.0394150222
H       -4.4276418415    0.8170166463    0.6321749325
H       -5.0729734979   -0.7675564708    0.1418628157
H       -0.7447500548   -2.1479926101    0.0343379211
H       -1.1595275579   -1.3252896905   -1.4862825877
H        1.7227637982   -1.2583400177   -0.1750732168
H        1.9030748975    0.2298728264   -0.8267442393
