20
0 1 C8H10O2
C                     1.899516803860    -1.054410045539    -0.116497256949
C                     0.814947298052    -0.487723404775     0.559680842505
C                     2.958105370240    -1.634629615575     0.586916334096
C                     0.751942845504    -0.501276707370     1.961970012507
C                     2.911220253500    -1.652686020438     1.982034676635
C                     1.806458170849    -1.105151758165     2.656576210896
C                    -0.409589421225     0.119327963435     2.701439547894
C                     1.064115996974    -2.208208593713     4.621879023810
O                     3.942995960960    -2.200815062020     2.695233865577
O                     1.853917497781    -1.151405947501     4.049985570341
H                     1.929357106769    -1.032005978923    -1.202659967168
H                     0.010129547209    -0.020078311608    -0.002173145592
H                     3.817404624309    -2.062361263623     0.079070939427
H                    -1.208274727877    -0.611367236996     2.878639029601
H                    -0.096118854237     0.510026758384     3.673079446006
H                    -0.842505270236     0.938704220735     2.121032321035
H                     1.255001678841    -2.190437574121     5.697097121622
H                     1.355427876820    -3.180942422831     4.207887218617
H                    -0.002934123588    -2.044446461290     4.438861958353
H                     3.764829333815    -1.995665085641     3.632131401230
