29
0 1 C14H14O
C                     2.010938896809    -1.052703163279    -0.031225106752
C                     2.453283286686    -3.511998321128     8.702452904923
C                     3.145678752025    -1.300455852778     0.749027163742
C                     0.779197133470    -0.831300323807     0.592766097113
C                     3.516795788802    -3.810812700838     7.839619069885
C                     1.434023927326    -2.671441703637     8.253242805870
C                     3.053083842296    -1.320930623952     2.143452273550
C                     0.687417987453    -0.857470153040     1.987705630672
C                     3.557284984019    -3.277333454074     6.553551698927
C                     1.461124669233    -2.126534494001     6.962819814333
C                     1.821318562321    -1.099015800238     2.773103980203
C                     2.528401298809    -2.432187843562     6.105647519269
C                     1.991289769087     0.363622728576     4.813305964004
C                     1.710896291502    -1.048242887323     4.283042738820
O                     2.662108700424    -1.984377772780     4.817716396758
H                     2.084799075869    -1.038139677264    -1.115602103183
H                     2.423298237934    -3.927226099074     9.705804191894
H                     4.104902639329    -1.480264283970     0.269900311547
H                    -0.109799942544    -0.646261065848    -0.004831213305
H                     4.319731542063    -4.464587500983     8.170826037693
H                     0.602062777602    -2.427670633430     8.909304731087
H                     3.931439270439    -1.523798253730     2.748125180701
H                    -0.275955167775    -0.692874338964     2.467043672199
H                     4.373097645564    -3.504325648456     5.873224082834
H                     0.653727766875    -1.474945449741     6.649644877485
H                     2.989845175915     0.681589074019     4.499818537430
H                     1.939858506804     0.399557930553     5.904791027481
H                     1.262058696163     1.069679025319     4.404305395304
H                     0.699146718776    -1.363191425094     4.563605008059
