
  -OEChem-05262117483D

 29 30  0     1  0  0  0  0  0999 V2000
    2.0109   -1.0527   -0.0312 C   0  0  0  0  0  0  0  0  0  0  0  0
    2.4533   -3.5120    8.7025 C   0  0  0  0  0  0  0  0  0  0  0  0
    3.1457   -1.3005    0.7490 C   0  0  0  0  0  0  0  0  0  0  0  0
    0.7792   -0.8313    0.5928 C   0  0  0  0  0  0  0  0  0  0  0  0
    3.5168   -3.8108    7.8396 C   0  0  0  0  0  0  0  0  0  0  0  0
    1.4340   -2.6714    8.2532 C   0  0  0  0  0  0  0  0  0  0  0  0
    3.0531   -1.3209    2.1435 C   0  0  0  0  0  0  0  0  0  0  0  0
    0.6874   -0.8575    1.9877 C   0  0  0  0  0  0  0  0  0  0  0  0
    3.5573   -3.2773    6.5536 C   0  0  0  0  0  0  0  0  0  0  0  0
    1.4611   -2.1265    6.9628 C   0  0  0  0  0  0  0  0  0  0  0  0
    1.8213   -1.0990    2.7731 C   0  0  0  0  0  0  0  0  0  0  0  0
    2.5284   -2.4322    6.1056 C   0  0  0  0  0  0  0  0  0  0  0  0
    1.9913    0.3636    4.8133 C   0  0  0  0  0  0  0  0  0  0  0  0
    1.7109   -1.0482    4.2830 C   0  0  2  0  0  0  0  0  0  0  0  0
    2.6621   -1.9844    4.8177 O   0  0  0  0  0  0  0  0  0  0  0  0
    2.0848   -1.0381   -1.1156 H   0  0  0  0  0  0  0  0  0  0  0  0
    2.4233   -3.9272    9.7058 H   0  0  0  0  0  0  0  0  0  0  0  0
    4.1049   -1.4803    0.2699 H   0  0  0  0  0  0  0  0  0  0  0  0
   -0.1098   -0.6463   -0.0048 H   0  0  0  0  0  0  0  0  0  0  0  0
    4.3197   -4.4646    8.1708 H   0  0  0  0  0  0  0  0  0  0  0  0
    0.6021   -2.4277    8.9093 H   0  0  0  0  0  0  0  0  0  0  0  0
    3.9314   -1.5238    2.7481 H   0  0  0  0  0  0  0  0  0  0  0  0
   -0.2760   -0.6929    2.4670 H   0  0  0  0  0  0  0  0  0  0  0  0
    4.3731   -3.5043    5.8732 H   0  0  0  0  0  0  0  0  0  0  0  0
    0.6537   -1.4749    6.6496 H   0  0  0  0  0  0  0  0  0  0  0  0
    2.9898    0.6816    4.4998 H   0  0  0  0  0  0  0  0  0  0  0  0
    1.9399    0.3996    5.9048 H   0  0  0  0  0  0  0  0  0  0  0  0
    1.2621    1.0697    4.4043 H   0  0  0  0  0  0  0  0  0  0  0  0
    0.6991   -1.3632    4.5636 H   0  0  0  0  0  0  0  0  0  0  0  0
  1  3  1  0  0  0  0
  1  4  2  0  0  0  0
  1 16  1  0  0  0  0
  2  5  1  0  0  0  0
  2  6  2  0  0  0  0
  2 17  1  0  0  0  0
  3  7  2  0  0  0  0
  3 18  1  0  0  0  0
  4  8  1  0  0  0  0
  4 19  1  0  0  0  0
  5  9  2  0  0  0  0
  5 20  1  0  0  0  0
  6 10  1  0  0  0  0
  6 21  1  0  0  0  0
  7 11  1  0  0  0  0
  7 22  1  0  0  0  0
  8 11  2  0  0  0  0
  8 23  1  0  0  0  0
  9 12  1  0  0  0  0
  9 24  1  0  0  0  0
 10 12  2  0  0  0  0
 10 25  1  0  0  0  0
 11 14  1  0  0  0  0
 12 15  1  0  0  0  0
 13 14  1  0  0  0  0
 13 26  1  0  0  0  0
 13 27  1  0  0  0  0
 13 28  1  0  0  0  0
 14 15  1  0  0  0  0
 14 29  1  0  0  0  0
M  END
$$$$
