
  -OEChem-05262117483D

 29 30  0     1  0  0  0  0  0999 V2000
    1.9534   -0.8682   -0.3069 C   0  0  0  0  0  0  0  0  0  0  0  0
    0.3412   -5.7854    3.5780 C   0  0  0  0  0  0  0  0  0  0  0  0
    3.0958   -1.0549    0.4821 C   0  0  0  0  0  0  0  0  0  0  0  0
    0.7063   -0.7235    0.3061 C   0  0  0  0  0  0  0  0  0  0  0  0
    1.6010   -5.4818    3.0512 C   0  0  0  0  0  0  0  0  0  0  0  0
   -0.2921   -4.8698    4.4262 C   0  0  0  0  0  0  0  0  0  0  0  0
    2.9889   -1.0894    1.8729 C   0  0  0  0  0  0  0  0  0  0  0  0
    0.6037   -0.7641    1.7015 C   0  0  0  0  0  0  0  0  0  0  0  0
    2.2227   -4.2682    3.3598 C   0  0  0  0  0  0  0  0  0  0  0  0
    0.3272   -3.6583    4.7462 C   0  0  0  0  0  0  0  0  0  0  0  0
    1.7410   -0.9395    2.4960 C   0  0  0  0  0  0  0  0  0  0  0  0
    1.5847   -3.3587    4.2082 C   0  0  0  0  0  0  0  0  0  0  0  0
    2.3361    0.1881    4.6917 C   0  0  0  0  0  0  0  0  0  0  0  0
    1.6305   -0.9772    4.0078 C   0  0  2  0  0  0  0  0  0  0  0  0
    2.2346   -2.1822    4.5399 O   0  0  0  0  0  0  0  0  0  0  0  0
    2.0361   -0.8425   -1.3905 H   0  0  0  0  0  0  0  0  0  0  0  0
   -0.1415   -6.7278    3.3337 H   0  0  0  0  0  0  0  0  0  0  0  0
    4.0678   -1.1757    0.0101 H   0  0  0  0  0  0  0  0  0  0  0  0
   -0.1865   -0.5885   -0.2992 H   0  0  0  0  0  0  0  0  0  0  0  0
    2.0994   -6.1878    2.3918 H   0  0  0  0  0  0  0  0  0  0  0  0
   -1.2660   -5.1034    4.8492 H   0  0  0  0  0  0  0  0  0  0  0  0
    3.8741   -1.2489    2.4833 H   0  0  0  0  0  0  0  0  0  0  0  0
   -0.3715   -0.6678    2.1745 H   0  0  0  0  0  0  0  0  0  0  0  0
    3.1948   -4.0121    2.9503 H   0  0  0  0  0  0  0  0  0  0  0  0
   -0.1504   -2.9538    5.4221 H   0  0  0  0  0  0  0  0  0  0  0  0
    3.4049    0.1791    4.4601 H   0  0  0  0  0  0  0  0  0  0  0  0
    2.2151    0.1175    5.7766 H   0  0  0  0  0  0  0  0  0  0  0  0
    1.9166    1.1368    4.3448 H   0  0  0  0  0  0  0  0  0  0  0  0
    0.5679   -0.9660    4.2815 H   0  0  0  0  0  0  0  0  0  0  0  0
  1  3  1  0  0  0  0
  1  4  2  0  0  0  0
  1 16  1  0  0  0  0
  2  5  1  0  0  0  0
  2  6  2  0  0  0  0
  2 17  1  0  0  0  0
  3  7  2  0  0  0  0
  3 18  1  0  0  0  0
  4  8  1  0  0  0  0
  4 19  1  0  0  0  0
  5  9  2  0  0  0  0
  5 20  1  0  0  0  0
  6 10  1  0  0  0  0
  6 21  1  0  0  0  0
  7 11  1  0  0  0  0
  7 22  1  0  0  0  0
  8 11  2  0  0  0  0
  8 23  1  0  0  0  0
  9 12  1  0  0  0  0
  9 24  1  0  0  0  0
 10 12  2  0  0  0  0
 10 25  1  0  0  0  0
 11 14  1  0  0  0  0
 12 15  1  0  0  0  0
 13 14  1  0  0  0  0
 13 26  1  0  0  0  0
 13 27  1  0  0  0  0
 13 28  1  0  0  0  0
 14 15  1  0  0  0  0
 14 29  1  0  0  0  0
M  END
$$$$
