
  -OEChem-05262117483D

 14 14  0     0  0  0  0  0  0999 V2000
   -1.0703   -0.0530   -0.7813 C   0  0  0  0  0  0  0  0  0  0  0  0
    0.2595    0.5248   -1.2525 C   0  0  0  0  0  0  0  0  0  0  0  0
    0.1120   -0.0303    0.1413 C   0  0  0  0  0  0  0  0  0  0  0  0
    0.7801   -1.3311    0.5306 C   0  0  0  0  0  0  0  0  0  0  0  0
    0.0340    0.8932    1.2152 O   0  0  0  0  0  0  0  0  0  0  0  0
    2.0935   -1.1262    1.0628 O   0  0  0  0  0  0  0  0  0  0  0  0
   -1.8672    0.6490   -0.5579 H   0  0  0  0  0  0  0  0  0  0  0  0
   -1.3939   -1.0086   -1.1855 H   0  0  0  0  0  0  0  0  0  0  0  0
    0.8459   -0.0396   -1.9720 H   0  0  0  0  0  0  0  0  0  0  0  0
    0.3174    1.6042   -1.3589 H   0  0  0  0  0  0  0  0  0  0  0  0
    0.8999   -1.9735   -0.3459 H   0  0  0  0  0  0  0  0  0  0  0  0
    0.1493   -1.8586    1.2595 H   0  0  0  0  0  0  0  0  0  0  0  0
    0.8665    1.3920    1.2204 H   0  0  0  0  0  0  0  0  0  0  0  0
    1.9830   -0.7638    1.9555 H   0  0  0  0  0  0  0  0  0  0  0  0
  1  2  1  0  0  0  0
  1  3  1  0  0  0  0
  1  7  1  0  0  0  0
  1  8  1  0  0  0  0
  2  3  1  0  0  0  0
  2  9  1  0  0  0  0
  2 10  1  0  0  0  0
  3  4  1  0  0  0  0
  3  5  1  0  0  0  0
  4  6  1  0  0  0  0
  4 11  1  0  0  0  0
  4 12  1  0  0  0  0
  5 13  1  0  0  0  0
  6 14  1  0  0  0  0
M  END
$$$$
