
  -OEChem-05262117483D

 27 28  0     0  0  0  0  0  0999 V2000
    4.3778    2.0066    2.4019 C   0  0  0  0  0  0  0  0  0  0  0  0
    3.3813    2.4085    3.2970 C   0  0  0  0  0  0  0  0  0  0  0  0
    4.6667    0.6449    2.2415 C   0  0  0  0  0  0  0  0  0  0  0  0
   -1.3820    0.1235    4.7541 C   0  0  0  0  0  0  0  0  0  0  0  0
   -1.7655   -0.2837    6.0343 C   0  0  0  0  0  0  0  0  0  0  0  0
    2.6621    1.4524    4.0191 C   0  0  0  0  0  0  0  0  0  0  0  0
    3.9631   -0.3084    2.9758 C   0  0  0  0  0  0  0  0  0  0  0  0
   -0.0641   -0.0759    4.3427 C   0  0  0  0  0  0  0  0  0  0  0  0
   -0.8355   -0.8975    6.8787 C   0  0  0  0  0  0  0  0  0  0  0  0
    2.9465    0.0858    3.8618 C   0  0  0  0  0  0  0  0  0  0  0  0
    0.8710   -0.7032    5.1835 C   0  0  0  0  0  0  0  0  0  0  0  0
    0.4850   -1.1357    6.4737 C   0  0  0  0  0  0  0  0  0  0  0  0
    2.2497   -0.9740    4.6608 C   0  0  0  0  0  0  0  0  0  0  0  0
    1.4387   -1.8268    7.4209 C   0  0  0  0  0  0  0  0  0  0  0  0
    2.8053   -2.0503    4.8728 O   0  0  0  0  0  0  0  0  0  0  0  0
    4.9308    2.7506    1.8340 H   0  0  0  0  0  0  0  0  0  0  0  0
    3.1652    3.4649    3.4333 H   0  0  0  0  0  0  0  0  0  0  0  0
    5.4429    0.3321    1.5479 H   0  0  0  0  0  0  0  0  0  0  0  0
   -2.0978    0.5948    4.0859 H   0  0  0  0  0  0  0  0  0  0  0  0
   -2.7846   -0.1239    6.3774 H   0  0  0  0  0  0  0  0  0  0  0  0
    1.8944    1.7692    4.7180 H   0  0  0  0  0  0  0  0  0  0  0  0
    4.1855   -1.3668    2.8797 H   0  0  0  0  0  0  0  0  0  0  0  0
    0.2416    0.2398    3.3494 H   0  0  0  0  0  0  0  0  0  0  0  0
   -1.1422   -1.2047    7.8759 H   0  0  0  0  0  0  0  0  0  0  0  0
    1.6133   -2.8603    7.1097 H   0  0  0  0  0  0  0  0  0  0  0  0
    2.4180   -1.3412    7.4434 H   0  0  0  0  0  0  0  0  0  0  0  0
    1.0302   -1.8308    8.4354 H   0  0  0  0  0  0  0  0  0  0  0  0
  1  2  1  0  0  0  0
  1  3  2  0  0  0  0
  1 16  1  0  0  0  0
  2  6  2  0  0  0  0
  2 17  1  0  0  0  0
  3  7  1  0  0  0  0
  3 18  1  0  0  0  0
  4  5  1  0  0  0  0
  4  8  2  0  0  0  0
  4 19  1  0  0  0  0
  5  9  2  0  0  0  0
  5 20  1  0  0  0  0
  6 10  1  0  0  0  0
  6 21  1  0  0  0  0
  7 10  2  0  0  0  0
  7 22  1  0  0  0  0
  8 11  1  0  0  0  0
  8 23  1  0  0  0  0
  9 12  1  0  0  0  0
  9 24  1  0  0  0  0
 10 13  1  0  0  0  0
 11 12  2  0  0  0  0
 11 13  1  0  0  0  0
 12 14  1  0  0  0  0
 13 15  2  0  0  0  0
 14 25  1  0  0  0  0
 14 26  1  0  0  0  0
 14 27  1  0  0  0  0
M  END
$$$$
