
  -OEChem-05262117483D

 22 22  0     0  0  0  0  0  0999 V2000
    1.9030   -1.1739   -0.0128 C   0  0  0  0  0  0  0  0  0  0  0  0
    2.9395   -1.7441    0.7311 C   0  0  0  0  0  0  0  0  0  0  0  0
    0.8217   -0.5797    0.6411 C   0  0  0  0  0  0  0  0  0  0  0  0
    2.9049   -1.7402    2.1315 C   0  0  0  0  0  0  0  0  0  0  0  0
    0.7507   -0.5558    2.0410 C   0  0  0  0  0  0  0  0  0  0  0  0
    1.7972   -1.1510    2.7648 C   0  0  0  0  0  0  0  0  0  0  0  0
    4.0271   -2.3347    2.9490 C   0  0  0  0  0  0  0  0  0  0  0  0
   -0.4084    0.0995    2.7543 C   0  0  0  0  0  0  0  0  0  0  0  0
    1.0844   -2.2004    4.7618 C   0  0  0  0  0  0  0  0  0  0  0  0
    1.7739   -1.1049    4.1546 O   0  0  0  0  0  0  0  0  0  0  0  0
    1.9455   -1.1804   -1.0989 H   0  0  0  0  0  0  0  0  0  0  0  0
    3.7904   -2.1912    0.2219 H   0  0  0  0  0  0  0  0  0  0  0  0
    0.0243   -0.1188    0.0619 H   0  0  0  0  0  0  0  0  0  0  0  0
    4.3251   -1.6597    3.7560 H   0  0  0  0  0  0  0  0  0  0  0  0
    3.7286   -3.2801    3.4171 H   0  0  0  0  0  0  0  0  0  0  0  0
    4.8987   -2.5381    2.3210 H   0  0  0  0  0  0  0  0  0  0  0  0
   -1.1693   -0.6357    3.0439 H   0  0  0  0  0  0  0  0  0  0  0  0
   -0.0757    0.5994    3.6674 H   0  0  0  0  0  0  0  0  0  0  0  0
   -0.8956    0.8351    2.1082 H   0  0  0  0  0  0  0  0  0  0  0  0
    1.1617   -2.0581    5.8421 H   0  0  0  0  0  0  0  0  0  0  0  0
    1.5415   -3.1592    4.4871 H   0  0  0  0  0  0  0  0  0  0  0  0
    0.0264   -2.2162    4.4722 H   0  0  0  0  0  0  0  0  0  0  0  0
  1  2  1  0  0  0  0
  1  3  2  0  0  0  0
  1 11  1  0  0  0  0
  2  4  2  0  0  0  0
  2 12  1  0  0  0  0
  3  5  1  0  0  0  0
  3 13  1  0  0  0  0
  4  6  1  0  0  0  0
  4  7  1  0  0  0  0
  5  6  2  0  0  0  0
  5  8  1  0  0  0  0
  6 10  1  0  0  0  0
  7 14  1  0  0  0  0
  7 15  1  0  0  0  0
  7 16  1  0  0  0  0
  8 17  1  0  0  0  0
  8 18  1  0  0  0  0
  8 19  1  0  0  0  0
  9 10  1  0  0  0  0
  9 20  1  0  0  0  0
  9 21  1  0  0  0  0
  9 22  1  0  0  0  0
M  END
$$$$
