23
0 1 C6H13NO2S
C                     0.289429051454     2.458494533897    -0.200899625023
C                     0.945976999480     1.865134350697     1.056712918924
C                    -0.967274344877     1.680663317935    -0.618756254807
C                     1.334500521545     0.390841731005     0.880835226637
C                    -0.699978992818    -1.183127110262    -2.965997646163
C                    -0.024379178220    -0.036609675375    -2.217471994247
N                    -0.703692467435     0.257126381148    -0.930873451079
O                     0.304622956864    -1.909790954033    -0.039188086042
O                    -1.112459457315    -0.425525238376     1.484746917663
S                    -0.125666019430    -0.584584355964     0.412960126596
H                     0.014310020714     3.501794985449    -0.010304112187
H                     1.010336209189     2.466193162711    -1.028573571490
H                     1.848773419034     2.430071695647     1.313066225085
H                     0.260612082018     1.948898583972     1.906406818145
H                    -1.714762925879     1.707047971948     0.178145147842
H                    -1.425429517914     2.121405533846    -1.508355381026
H                     2.071811463712     0.243689423455     0.086493216026
H                     1.714652835852    -0.054189524408     1.804022563944
H                    -0.633331959524    -2.106247115060    -2.387469268282
H                    -1.756069684011    -0.954301242760    -3.138059748506
H                    -0.212320068287    -1.339227883822    -3.935022292290
H                    -0.073198405915     0.882077835272    -2.809822009903
H                     1.040050869553    -0.259088887752    -2.071609482063
