14
0 1 C4H8O2
C                    -1.070280260591    -0.053012724252    -0.781340973228
C                     0.259531666199     0.524776699989    -1.252480117682
C                     0.112034112853    -0.030301877732     0.141307989768
C                     0.780059274273    -1.331072956083     0.530621912081
O                     0.033984358439     0.893154683773     1.215248743753
O                     2.093537003433    -1.126232066821     1.062779009584
H                    -1.867187928698     0.648956022505    -0.557862362063
H                    -1.393862747895    -1.008595650091    -1.185478869038
H                     0.845942561975    -0.039628536110    -1.972009366753
H                     0.317350769469     1.604187923933    -1.358949106648
H                     0.899893628548    -1.973514780665    -0.345867266793
H                     0.149254612190    -1.858595567201     1.259513480782
H                     0.866475399764     1.391986190254     1.220377497528
H                     1.982984343349    -0.763779793567     1.955534392109
