22
0 1 C10H10N2
C                     1.902204680125    -1.124594697279    -0.107053131813
C                     2.906921815810    -0.604193938274     0.715594784759
C                     0.687330435084    -1.527315721108     0.456608065251
C                     2.702257634694    -0.491328847864     2.093634784798
C                     0.482508278695    -1.410020501968     1.834726182430
C                     2.760561109741     2.224487487033     5.399065336797
C                     1.790856947157     1.604893110776     4.640746630878
C                     3.071363660485     0.116732899561     5.653353851692
C                     1.488468864407    -0.896870412684     2.663225179670
C                     1.262426050982    -0.827357958879     4.163707303403
N                     3.555093031469     1.286594309750     6.027804329180
N                     1.994056752053     0.247770856153     4.815254188114
H                     2.061968471255    -1.209186463169    -1.178773680477
H                     3.850987681211    -0.282080685036     0.283810104954
H                    -0.102180547434    -1.925144364038    -0.175728660109
H                     3.482128283751    -0.074677461511     2.725337005516
H                    -0.468322953299    -1.717142736339     2.266532669628
H                     2.928154945553     3.286174343648     5.528358178077
H                     1.007690762352     1.985798655925     4.000564049020
H                     3.446921938713    -0.853862931915     5.954695401840
H                     0.194167845307    -0.716739712572     4.376531201312
H                     1.583416723561    -1.762843210517     4.634173937707
