
  -OEChem-05262117483D

 29 30  0     1  0  0  0  0  0999 V2000
    1.6994   -1.6947    0.2473 C   0  0  0  0  0  0  0  0  0  0  0  0
   -0.2086   -4.9487    6.1982 C   0  0  0  0  0  0  0  0  0  0  0  0
    2.5722   -2.3339    1.1345 C   0  0  0  0  0  0  0  0  0  0  0  0
    0.8282   -0.7097    0.7244 C   0  0  0  0  0  0  0  0  0  0  0  0
    1.0438   -4.7515    6.7956 C   0  0  0  0  0  0  0  0  0  0  0  0
   -0.6730   -4.0147    5.2706 C   0  0  0  0  0  0  0  0  0  0  0  0
    2.5785   -1.9888    2.4888 C   0  0  0  0  0  0  0  0  0  0  0  0
    0.8329   -0.3703    2.0805 C   0  0  0  0  0  0  0  0  0  0  0  0
    1.8139   -3.6363    6.4713 C   0  0  0  0  0  0  0  0  0  0  0  0
    0.0910   -2.8905    4.9319 C   0  0  0  0  0  0  0  0  0  0  0  0
    1.7083   -1.0039    2.9710 C   0  0  0  0  0  0  0  0  0  0  0  0
    1.3396   -2.6998    5.5395 C   0  0  0  0  0  0  0  0  0  0  0  0
    2.7130    0.5709    4.6616 C   0  0  0  0  0  0  0  0  0  0  0  0
    1.7380   -0.5830    4.4306 C   0  0  2  0  0  0  0  0  0  0  0  0
    2.1771   -1.6387    5.2973 O   0  0  0  0  0  0  0  0  0  0  0  0
    1.6934   -1.9661   -0.8052 H   0  0  0  0  0  0  0  0  0  0  0  0
   -0.8085   -5.8186    6.4509 H   0  0  0  0  0  0  0  0  0  0  0  0
    3.2457   -3.1063    0.7717 H   0  0  0  0  0  0  0  0  0  0  0  0
    0.1421   -0.2121    0.0436 H   0  0  0  0  0  0  0  0  0  0  0  0
    1.4217   -5.4688    7.5198 H   0  0  0  0  0  0  0  0  0  0  0  0
   -1.6387   -4.1577    4.7920 H   0  0  0  0  0  0  0  0  0  0  0  0
    3.2465   -2.4932    3.1808 H   0  0  0  0  0  0  0  0  0  0  0  0
    0.1457    0.3898    2.4490 H   0  0  0  0  0  0  0  0  0  0  0  0
    2.7844   -3.4671    6.9292 H   0  0  0  0  0  0  0  0  0  0  0  0
   -0.2835   -2.1981    4.1881 H   0  0  0  0  0  0  0  0  0  0  0  0
    3.7267    0.2665    4.3856 H   0  0  0  0  0  0  0  0  0  0  0  0
    2.7061    0.8679    5.7145 H   0  0  0  0  0  0  0  0  0  0  0  0
    2.4311    1.4291    4.0454 H   0  0  0  0  0  0  0  0  0  0  0  0
    0.7315   -0.2681    4.7376 H   0  0  0  0  0  0  0  0  0  0  0  0
  1  3  1  0  0  0  0
  1  4  2  0  0  0  0
  1 16  1  0  0  0  0
  2  5  1  0  0  0  0
  2  6  2  0  0  0  0
  2 17  1  0  0  0  0
  3  7  2  0  0  0  0
  3 18  1  0  0  0  0
  4  8  1  0  0  0  0
  4 19  1  0  0  0  0
  5  9  2  0  0  0  0
  5 20  1  0  0  0  0
  6 10  1  0  0  0  0
  6 21  1  0  0  0  0
  7 11  1  0  0  0  0
  7 22  1  0  0  0  0
  8 11  2  0  0  0  0
  8 23  1  0  0  0  0
  9 12  1  0  0  0  0
  9 24  1  0  0  0  0
 10 12  2  0  0  0  0
 10 25  1  0  0  0  0
 11 14  1  0  0  0  0
 12 15  1  0  0  0  0
 13 14  1  0  0  0  0
 13 26  1  0  0  0  0
 13 27  1  0  0  0  0
 13 28  1  0  0  0  0
 14 15  1  0  0  0  0
 14 29  1  0  0  0  0
M  END
$$$$
