
  -OEChem-05262117483D

 34 36  0     0  0  0  0  0  0999 V2000
   -3.6215   -1.9190   -0.7488 C   0  0  0  0  0  0  0  0  0  0  0  0
   -2.4489   -2.9618    1.0623 C   0  0  0  0  0  0  0  0  0  0  0  0
   -2.5142   -1.0865   -0.9342 C   0  0  0  0  0  0  0  0  0  0  0  0
   -3.5986   -2.8662    0.2717 C   0  0  0  0  0  0  0  0  0  0  0  0
   -1.3988   -1.2289   -0.0736 C   0  0  0  0  0  0  0  0  0  0  0  0
   -1.2880   -2.8859   -3.4681 C   0  0  0  0  0  0  0  0  0  0  0  0
   -0.3773   -2.2177   -4.4751 C   0  0  0  0  0  0  0  0  0  0  0  0
    1.1047   -0.9440    0.4250 C   0  0  0  0  0  0  0  0  0  0  0  0
    1.0031   -0.8894   -1.0807 C   0  0  0  0  0  0  0  0  0  0  0  0
   -1.5911   -1.4952   -3.9536 C   0  0  0  0  0  0  0  0  0  0  0  0
   -0.1493   -0.3766   -0.1776 C   0  0  0  0  0  0  0  0  0  0  0  0
   -0.3173    1.1352   -0.0484 C   0  0  0  0  0  0  0  0  0  0  0  0
   -2.5549   -0.0993   -2.0710 C   0  0  0  0  0  0  0  0  0  0  0  0
   -1.3924   -2.1672    0.8840 N   0  0  0  0  0  0  0  0  0  0  0  0
   -1.4012   -0.3365   -3.0386 N   0  3  0  0  0  0  0  0  0  0  0  0
   -4.9519   -3.9185    0.5445 Cl  0  0  0  0  0  0  0  0  0  0  0  0
   -4.4928   -1.8390   -1.3933 H   0  0  0  0  0  0  0  0  0  0  0  0
   -2.3856   -3.7002    1.8588 H   0  0  0  0  0  0  0  0  0  0  0  0
   -1.9562   -3.6722   -3.8025 H   0  0  0  0  0  0  0  0  0  0  0  0
   -0.9219   -3.0124   -2.4556 H   0  0  0  0  0  0  0  0  0  0  0  0
    0.6005   -1.8937   -4.1296 H   0  0  0  0  0  0  0  0  0  0  0  0
   -0.4031   -2.5379   -5.5111 H   0  0  0  0  0  0  0  0  0  0  0  0
    1.0334   -1.9175    0.8931 H   0  0  0  0  0  0  0  0  0  0  0  0
    1.7801   -0.2467    0.9091 H   0  0  0  0  0  0  0  0  0  0  0  0
    1.6115   -0.1566   -1.6079 H   0  0  0  0  0  0  0  0  0  0  0  0
    0.9025   -1.8514   -1.5783 H   0  0  0  0  0  0  0  0  0  0  0  0
   -2.4402   -1.3298   -4.6085 H   0  0  0  0  0  0  0  0  0  0  0  0
    0.6605    1.6125    0.0547 H   0  0  0  0  0  0  0  0  0  0  0  0
   -0.9002    1.3758    0.8455 H   0  0  0  0  0  0  0  0  0  0  0  0
   -0.8059    1.6136   -0.9037 H   0  0  0  0  0  0  0  0  0  0  0  0
   -3.4732   -0.1975   -2.6512 H   0  0  0  0  0  0  0  0  0  0  0  0
   -2.4727    0.9348   -1.7364 H   0  0  0  0  0  0  0  0  0  0  0  0
   -0.5444   -0.4618   -2.4674 H   0  0  0  0  0  0  0  0  0  0  0  0
   -1.2491    0.5061   -3.6052 H   0  0  0  0  0  0  0  0  0  0  0  0
  1  3  1  0  0  0  0
  1  4  2  0  0  0  0
  1 17  1  0  0  0  0
  2  4  1  0  0  0  0
  2 14  2  0  0  0  0
  2 18  1  0  0  0  0
  3  5  2  0  0  0  0
  3 13  1  0  0  0  0
  4 16  1  0  0  0  0
  5 11  1  0  0  0  0
  5 14  1  0  0  0  0
  6  7  1  0  0  0  0
  6 10  1  0  0  0  0
  6 19  1  0  0  0  0
  6 20  1  0  0  0  0
  7 10  1  0  0  0  0
  7 21  1  0  0  0  0
  7 22  1  0  0  0  0
  8  9  1  0  0  0  0
  8 11  1  0  0  0  0
  8 23  1  0  0  0  0
  8 24  1  0  0  0  0
  9 11  1  0  0  0  0
  9 25  1  0  0  0  0
  9 26  1  0  0  0  0
 10 15  1  0  0  0  0
 10 27  1  0  0  0  0
 11 12  1  0  0  0  0
 12 28  1  0  0  0  0
 12 29  1  0  0  0  0
 12 30  1  0  0  0  0
 13 15  1  0  0  0  0
 13 31  1  0  0  0  0
 13 32  1  0  0  0  0
 15 33  1  0  0  0  0
 15 34  1  0  0  0  0
M  CHG  1  15   1
M  END
$$$$
