
  -OEChem-05262117483D

 57 60  0     0  0  0  0  0  0999 V2000
   -2.5794   -5.5089    6.5820 C   0  0  0  0  0  0  0  0  0  0  0  0
    3.5726   -6.6453   -0.1755 C   0  0  0  0  0  0  0  0  0  0  0  0
   -1.4715   -6.3052    6.8867 C   0  0  0  0  0  0  0  0  0  0  0  0
   -2.3927   -4.2863    5.9261 C   0  0  0  0  0  0  0  0  0  0  0  0
    4.0519   -5.6355    0.6666 C   0  0  0  0  0  0  0  0  0  0  0  0
    2.4333   -7.3668    0.1944 C   0  0  0  0  0  0  0  0  0  0  0  0
    0.7660   -1.1006    2.5042 C   0  0  0  0  0  0  0  0  0  0  0  0
   -0.4423   -2.7899    1.3147 C   0  0  0  0  0  0  0  0  0  0  0  0
   -0.1868   -5.8795    6.5322 C   0  0  0  0  0  0  0  0  0  0  0  0
   -1.1081   -3.8634    5.5769 C   0  0  0  0  0  0  0  0  0  0  0  0
    3.3999   -5.3513    1.8689 C   0  0  0  0  0  0  0  0  0  0  0  0
    1.7805   -7.0762    1.3965 C   0  0  0  0  0  0  0  0  0  0  0  0
    1.3478   -2.0796    3.3074 C   0  0  0  0  0  0  0  0  0  0  0  0
    0.1202   -3.7780    2.1257 C   0  0  0  0  0  0  0  0  0  0  0  0
   -0.1416   -1.4338    1.4875 C   0  0  0  0  0  0  0  0  0  0  0  0
    0.0113   -4.6576    5.8756 C   0  0  0  0  0  0  0  0  0  0  0  0
    2.2576   -6.0700    2.2453 C   0  0  0  0  0  0  0  0  0  0  0  0
    1.0268   -3.4391    3.1430 C   0  0  0  0  0  0  0  0  0  0  0  0
   -2.3493    1.0749    0.4770 C   0  0  0  0  0  0  0  0  0  0  0  0
   -0.9405    1.0488    1.1280 C   0  0  0  0  0  0  0  0  0  0  0  0
   -2.2694   -0.4662    0.3114 C   0  0  0  0  0  0  0  0  0  0  0  0
   -0.7258   -0.3930    0.5590 C   0  0  0  0  0  0  0  0  0  0  0  0
    1.3997   -4.2290    5.4338 C   0  0  0  0  0  0  0  0  0  0  0  0
    1.5627   -5.8008    3.5663 C   0  0  0  0  0  0  0  0  0  0  0  0
    0.0298   -0.3743   -0.7856 C   0  0  0  0  0  0  0  0  0  0  0  0
    1.5299   -0.1481   -0.6548 C   0  0  0  0  0  0  0  0  0  0  0  0
    1.6418   -4.4041    3.9870 N   0  0  0  0  0  0  0  0  0  0  0  0
    2.0550    0.0430   -1.9773 O   0  0  0  0  0  0  0  0  0  0  0  0
   -3.5794   -5.8357    6.8555 H   0  0  0  0  0  0  0  0  0  0  0  0
    4.0779   -6.8631   -1.1130 H   0  0  0  0  0  0  0  0  0  0  0  0
   -1.6063   -7.2546    7.3993 H   0  0  0  0  0  0  0  0  0  0  0  0
   -3.2496   -3.6607    5.6888 H   0  0  0  0  0  0  0  0  0  0  0  0
    4.9336   -5.0658    0.3829 H   0  0  0  0  0  0  0  0  0  0  0  0
    2.0486   -8.1489   -0.4554 H   0  0  0  0  0  0  0  0  0  0  0  0
    1.0424   -0.0608    2.6607 H   0  0  0  0  0  0  0  0  0  0  0  0
   -1.1390   -3.0870    0.5336 H   0  0  0  0  0  0  0  0  0  0  0  0
    0.6719   -6.5047    6.7699 H   0  0  0  0  0  0  0  0  0  0  0  0
   -0.9726   -2.9150    5.0643 H   0  0  0  0  0  0  0  0  0  0  0  0
    3.7602   -4.5586    2.5179 H   0  0  0  0  0  0  0  0  0  0  0  0
    0.8867   -7.6328    1.6734 H   0  0  0  0  0  0  0  0  0  0  0  0
    2.0722   -1.7897    4.0639 H   0  0  0  0  0  0  0  0  0  0  0  0
   -0.1571   -4.8118    1.9585 H   0  0  0  0  0  0  0  0  0  0  0  0
   -2.3578    1.5991   -0.4824 H   0  0  0  0  0  0  0  0  0  0  0  0
   -3.1668    1.4630    1.0904 H   0  0  0  0  0  0  0  0  0  0  0  0
   -0.2285    1.8184    0.8141 H   0  0  0  0  0  0  0  0  0  0  0  0
   -1.0005    1.0509    2.2200 H   0  0  0  0  0  0  0  0  0  0  0  0
   -2.7810   -0.9947    1.1210 H   0  0  0  0  0  0  0  0  0  0  0  0
   -2.5916   -0.8873   -0.6464 H   0  0  0  0  0  0  0  0  0  0  0  0
    1.5652   -3.1799    5.6834 H   0  0  0  0  0  0  0  0  0  0  0  0
    2.1574   -4.8097    5.9704 H   0  0  0  0  0  0  0  0  0  0  0  0
    0.5287   -6.1779    3.5263 H   0  0  0  0  0  0  0  0  0  0  0  0
    2.0610   -6.3876    4.3473 H   0  0  0  0  0  0  0  0  0  0  0  0
   -0.3802    0.4154   -1.4267 H   0  0  0  0  0  0  0  0  0  0  0  0
   -0.1354   -1.3250   -1.3061 H   0  0  0  0  0  0  0  0  0  0  0  0
    1.7294    0.7376   -0.0324 H   0  0  0  0  0  0  0  0  0  0  0  0
    2.0010   -1.0119   -0.1695 H   0  0  0  0  0  0  0  0  0  0  0  0
    3.0215    0.0809   -1.9135 H   0  0  0  0  0  0  0  0  0  0  0  0
  1  3  1  0  0  0  0
  1  4  2  0  0  0  0
  1 29  1  0  0  0  0
  2  5  1  0  0  0  0
  2  6  2  0  0  0  0
  2 30  1  0  0  0  0
  3  9  2  0  0  0  0
  3 31  1  0  0  0  0
  4 10  1  0  0  0  0
  4 32  1  0  0  0  0
  5 11  2  0  0  0  0
  5 33  1  0  0  0  0
  6 12  1  0  0  0  0
  6 34  1  0  0  0  0
  7 13  2  0  0  0  0
  7 15  1  0  0  0  0
  7 35  1  0  0  0  0
  8 14  1  0  0  0  0
  8 15  2  0  0  0  0
  8 36  1  0  0  0  0
  9 16  1  0  0  0  0
  9 37  1  0  0  0  0
 10 16  2  0  0  0  0
 10 38  1  0  0  0  0
 11 17  1  0  0  0  0
 11 39  1  0  0  0  0
 12 17  2  0  0  0  0
 12 40  1  0  0  0  0
 13 18  1  0  0  0  0
 13 41  1  0  0  0  0
 14 18  2  0  0  0  0
 14 42  1  0  0  0  0
 15 22  1  0  0  0  0
 16 23  1  0  0  0  0
 17 24  1  0  0  0  0
 18 27  1  0  0  0  0
 19 20  1  0  0  0  0
 19 21  1  0  0  0  0
 19 43  1  0  0  0  0
 19 44  1  0  0  0  0
 20 22  1  0  0  0  0
 20 45  1  0  0  0  0
 20 46  1  0  0  0  0
 21 22  1  0  0  0  0
 21 47  1  0  0  0  0
 21 48  1  0  0  0  0
 22 25  1  0  0  0  0
 23 27  1  0  0  0  0
 23 49  1  0  0  0  0
 23 50  1  0  0  0  0
 24 27  1  0  0  0  0
 24 51  1  0  0  0  0
 24 52  1  0  0  0  0
 25 26  1  0  0  0  0
 25 53  1  0  0  0  0
 25 54  1  0  0  0  0
 26 28  1  0  0  0  0
 26 55  1  0  0  0  0
 26 56  1  0  0  0  0
 28 57  1  0  0  0  0
M  END
$$$$
