57
0 1 C26H29NO
C                     4.660792599174    -2.658140950866     5.733796825916
C                    -2.592873175637    -7.815543708177     3.324825505324
C                     4.850672616795    -3.073481216011     4.411102867078
C                     3.593151117787    -3.178489051446     6.471994976011
C                    -2.454438528163    -6.759890895251     2.415718404112
C                    -1.458767825064    -8.514771258773     3.748134448998
C                     0.084222881748    -2.106379816830     2.347823666207
C                     0.821283840601    -2.729265521876     0.157063516243
C                     3.983146821435    -4.002960184597     3.832008068495
C                     2.722856619635    -4.103413979167     5.886750005800
C                    -1.191778940694    -6.406410070172     1.934310919851
C                    -0.195452724617    -8.155207451697     3.266054883220
C                     0.600859312206    -3.297026799844     2.868274972219
C                     1.353324360365    -3.909746333326     0.666295249368
C                     0.175914269016    -1.798125503068     0.987939572221
C                     2.909982920762    -4.526053005659     4.564823263958
C                    -0.045819777180    -7.100794246970     2.355712454852
C                     1.245771685265    -4.223663187207     2.035478860233
C                    -2.173863796800     0.457962520781    -0.269593589852
C                    -1.545811131384     0.189419173063     1.124246837348
C                    -1.188681999862    -0.574829196340    -0.879086491752
C                    -0.322505897437    -0.488033089862     0.421724031469
C                     1.976704951938    -5.560728392562     3.964699105901
C                     1.332368672942    -6.671930715328     1.882614952544
C                     0.849815726398     0.496819130218     0.222746388659
C                     1.652621937077     0.790842958600     1.490413035020
N                     1.816907849103    -5.430748859184     2.518592962166
O                     2.693574752144     1.750343251035     1.264830298846
H                     5.333191098027    -1.930819683787     6.181565134032
H                    -3.576266972741    -8.091676023315     3.696869512405
H                     5.672560327970    -2.666291258888     3.827341603931
H                     3.432534943882    -2.858238422613     7.498521679467
H                    -3.332366714502    -6.213571269305     2.079819338396
H                    -1.556693512552    -9.338226895564     4.451233756406
H                    -0.396882130112    -1.407024686901     3.027151412543
H                     0.925704241707    -2.518639302215    -0.905338406953
H                     4.119610469011    -4.315061971228     2.800974140482
H                     1.885067461369    -4.494314951561     6.461798403217
H                    -1.092899077902    -5.583182588135     1.232143255381
H                     0.684085287590    -8.701938248335     3.601219683805
H                     0.498003852157    -3.489616554040     3.929193738696
H                     1.875633178930    -4.590834689285     0.000019479013
H                    -1.987554084902     1.475056624581    -0.625619307514
H                    -3.240701394503     0.245288009599    -0.377647649776
H                    -1.340298382860     1.056863125876     1.759162904728
H                    -2.133483130537    -0.531666523770     1.698794035153
H                    -1.645184711222    -1.562491675499    -0.990767198896
H                    -0.692342933917    -0.306221003247    -1.817404196160
H                     2.401879171195    -6.556006604925     4.140531982170
H                     1.015353745790    -5.549440349437     4.502214678298
H                     2.061168207142    -7.461193979410     2.094943037865
H                     1.328164741011    -6.524822742244     0.801701881342
H                     0.454489816503     1.442166408817    -0.177575832540
H                     1.533576908822     0.096280052199    -0.535199570126
H                     0.987799795353     1.127235868364     2.299895916900
H                     2.160221089715    -0.110011936227     1.839439585013
H                     2.279848509242     2.574310168264     0.963868078798
