
  -OEChem-05262117483D

 57 60  0     0  0  0  0  0  0999 V2000
    0.0854   -4.9647    7.9256 C   0  0  0  0  0  0  0  0  0  0  0  0
    4.1915   -7.7547   -0.2060 C   0  0  0  0  0  0  0  0  0  0  0  0
    1.4849   -4.9867    7.8849 C   0  0  0  0  0  0  0  0  0  0  0  0
   -0.6363   -4.8552    6.7338 C   0  0  0  0  0  0  0  0  0  0  0  0
    3.2162   -8.5970    0.3419 C   0  0  0  0  0  0  0  0  0  0  0  0
    4.1906   -6.3962    0.1224 C   0  0  0  0  0  0  0  0  0  0  0  0
    0.1806   -1.3739    2.2539 C   0  0  0  0  0  0  0  0  0  0  0  0
   -0.1882   -2.7182    0.3135 C   0  0  0  0  0  0  0  0  0  0  0  0
    2.1501   -4.8994    6.6599 C   0  0  0  0  0  0  0  0  0  0  0  0
    0.0338   -4.7656    5.5083 C   0  0  0  0  0  0  0  0  0  0  0  0
    2.2520   -8.0789    1.2095 C   0  0  0  0  0  0  0  0  0  0  0  0
    3.2212   -5.8802    0.9900 C   0  0  0  0  0  0  0  0  0  0  0  0
    0.7213   -2.4686    2.9258 C   0  0  0  0  0  0  0  0  0  0  0  0
    0.3645   -3.8241    0.9613 C   0  0  0  0  0  0  0  0  0  0  0  0
   -0.2905   -1.4691    0.9369 C   0  0  0  0  0  0  0  0  0  0  0  0
    1.4319   -4.7855    5.4607 C   0  0  0  0  0  0  0  0  0  0  0  0
    2.2433   -6.7159    1.5400 C   0  0  0  0  0  0  0  0  0  0  0  0
    0.8316   -3.7247    2.2889 C   0  0  0  0  0  0  0  0  0  0  0  0
   -2.7266    0.7084   -0.2949 C   0  0  0  0  0  0  0  0  0  0  0  0
   -1.8739    0.6137    0.9984 C   0  0  0  0  0  0  0  0  0  0  0  0
   -1.9101   -0.4728   -0.8841 C   0  0  0  0  0  0  0  0  0  0  0  0
   -0.8243   -0.2487    0.2207 C   0  0  0  0  0  0  0  0  0  0  0  0
    2.1875   -4.6744    4.1417 C   0  0  0  0  0  0  0  0  0  0  0  0
    1.1677   -6.1784    2.4768 C   0  0  0  0  0  0  0  0  0  0  0  0
    0.3298    0.6435   -0.2806 C   0  0  0  0  0  0  0  0  0  0  0  0
    1.3167   -0.0698   -1.1944 C   0  0  0  0  0  0  0  0  0  0  0  0
    1.3773   -4.8246    2.9493 N   0  0  0  0  0  0  0  0  0  0  0  0
    2.2210    0.9188   -1.7116 O   0  0  0  0  0  0  0  0  0  0  0  0
   -0.4351   -5.0347    8.8773 H   0  0  0  0  0  0  0  0  0  0  0  0
    4.9447   -8.1557   -0.8793 H   0  0  0  0  0  0  0  0  0  0  0  0
    2.0555   -5.0761    8.8061 H   0  0  0  0  0  0  0  0  0  0  0  0
   -1.7231   -4.8372    6.7557 H   0  0  0  0  0  0  0  0  0  0  0  0
    3.2109   -9.6561    0.0964 H   0  0  0  0  0  0  0  0  0  0  0  0
    4.9444   -5.7347   -0.2977 H   0  0  0  0  0  0  0  0  0  0  0  0
    0.1088   -0.4241    2.7801 H   0  0  0  0  0  0  0  0  0  0  0  0
   -0.5281   -2.8370   -0.7126 H   0  0  0  0  0  0  0  0  0  0  0  0
    3.2385   -4.9229    6.6346 H   0  0  0  0  0  0  0  0  0  0  0  0
   -0.5294   -4.6772    4.5840 H   0  0  0  0  0  0  0  0  0  0  0  0
    1.4999   -8.7405    1.6367 H   0  0  0  0  0  0  0  0  0  0  0  0
    3.2205   -4.8236    1.2409 H   0  0  0  0  0  0  0  0  0  0  0  0
    1.0262   -2.3520    3.9604 H   0  0  0  0  0  0  0  0  0  0  0  0
    0.4593   -4.7576    0.4168 H   0  0  0  0  0  0  0  0  0  0  0  0
   -2.5620    1.6433   -0.8373 H   0  0  0  0  0  0  0  0  0  0  0  0
   -3.8039    0.5559   -0.1874 H   0  0  0  0  0  0  0  0  0  0  0  0
   -1.5119    1.5514    1.4327 H   0  0  0  0  0  0  0  0  0  0  0  0
   -2.3723    0.0308    1.7782 H   0  0  0  0  0  0  0  0  0  0  0  0
   -2.4296   -1.4263   -0.7549 H   0  0  0  0  0  0  0  0  0  0  0  0
   -1.5859   -0.3880   -1.9260 H   0  0  0  0  0  0  0  0  0  0  0  0
    2.7120   -3.7137    4.0990 H   0  0  0  0  0  0  0  0  0  0  0  0
    2.9734   -5.4390    4.1175 H   0  0  0  0  0  0  0  0  0  0  0  0
    0.1905   -6.2384    1.9855 H   0  0  0  0  0  0  0  0  0  0  0  0
    1.0977   -6.8365    3.3514 H   0  0  0  0  0  0  0  0  0  0  0  0
    0.8780    1.0421    0.5815 H   0  0  0  0  0  0  0  0  0  0  0  0
   -0.0781    1.5046   -0.8239 H   0  0  0  0  0  0  0  0  0  0  0  0
    1.8613   -0.8403   -0.6343 H   0  0  0  0  0  0  0  0  0  0  0  0
    0.7824   -0.5680   -2.0174 H   0  0  0  0  0  0  0  0  0  0  0  0
    2.8948    0.4620   -2.2380 H   0  0  0  0  0  0  0  0  0  0  0  0
  1  3  1  0  0  0  0
  1  4  2  0  0  0  0
  1 29  1  0  0  0  0
  2  5  1  0  0  0  0
  2  6  2  0  0  0  0
  2 30  1  0  0  0  0
  3  9  2  0  0  0  0
  3 31  1  0  0  0  0
  4 10  1  0  0  0  0
  4 32  1  0  0  0  0
  5 11  2  0  0  0  0
  5 33  1  0  0  0  0
  6 12  1  0  0  0  0
  6 34  1  0  0  0  0
  7 13  2  0  0  0  0
  7 15  1  0  0  0  0
  7 35  1  0  0  0  0
  8 14  1  0  0  0  0
  8 15  2  0  0  0  0
  8 36  1  0  0  0  0
  9 16  1  0  0  0  0
  9 37  1  0  0  0  0
 10 16  2  0  0  0  0
 10 38  1  0  0  0  0
 11 17  1  0  0  0  0
 11 39  1  0  0  0  0
 12 17  2  0  0  0  0
 12 40  1  0  0  0  0
 13 18  1  0  0  0  0
 13 41  1  0  0  0  0
 14 18  2  0  0  0  0
 14 42  1  0  0  0  0
 15 22  1  0  0  0  0
 16 23  1  0  0  0  0
 17 24  1  0  0  0  0
 18 27  1  0  0  0  0
 19 20  1  0  0  0  0
 19 21  1  0  0  0  0
 19 43  1  0  0  0  0
 19 44  1  0  0  0  0
 20 22  1  0  0  0  0
 20 45  1  0  0  0  0
 20 46  1  0  0  0  0
 21 22  1  0  0  0  0
 21 47  1  0  0  0  0
 21 48  1  0  0  0  0
 22 25  1  0  0  0  0
 23 27  1  0  0  0  0
 23 49  1  0  0  0  0
 23 50  1  0  0  0  0
 24 27  1  0  0  0  0
 24 51  1  0  0  0  0
 24 52  1  0  0  0  0
 25 26  1  0  0  0  0
 25 53  1  0  0  0  0
 25 54  1  0  0  0  0
 26 28  1  0  0  0  0
 26 55  1  0  0  0  0
 26 56  1  0  0  0  0
 28 57  1  0  0  0  0
M  END
$$$$
