
  -OEChem-05262117483D

 28 28  0     0  0  0  0  0  0999 V2000
    5.0782   -1.3122    1.6296 C   0  0  0  0  0  0  0  0  0  0  0  0
    5.3130   -1.0899    4.0266 C   0  0  0  0  0  0  0  0  0  0  0  0
    3.8283   -0.6742    1.6705 C   0  0  0  0  0  0  0  0  0  0  0  0
    5.8130   -1.5251    2.7939 C   0  0  0  0  0  0  0  0  0  0  0  0
    3.3220   -0.2205    2.9027 C   0  0  0  0  0  0  0  0  0  0  0  0
    4.0838   -0.4402    4.0647 C   0  0  0  0  0  0  0  0  0  0  0  0
    3.1218   -0.5366    0.3380 C   0  0  0  0  0  0  0  0  0  0  0  0
    1.0929   -1.9124    0.8652 C   0  0  0  0  0  0  0  0  0  0  0  0
    1.1126   -0.3907   -1.1761 C   0  0  0  0  0  0  0  0  0  0  0  0
    2.1808    1.8463    2.9175 C   0  0  0  0  0  0  0  0  0  0  0  0
    1.5991   -0.5849    0.2620 C   0  0  0  0  0  0  0  0  0  0  0  0
    3.8055   -0.4741   -0.6773 O   0  0  0  0  0  0  0  0  0  0  0  0
    7.0309   -2.1564    2.8031 O   0  0  0  0  0  0  0  0  0  0  0  0
    2.1044    0.4127    2.9969 O   0  0  0  0  0  0  0  0  0  0  0  0
    3.4697    0.1103    5.6104 Cl  0  0  0  0  0  0  0  0  0  0  0  0
    5.4535   -1.6336    0.6612 H   0  0  0  0  0  0  0  0  0  0  0  0
    5.8836   -1.2605    4.9332 H   0  0  0  0  0  0  0  0  0  0  0  0
    1.4918   -2.7689    0.3103 H   0  0  0  0  0  0  0  0  0  0  0  0
    0.0009   -1.9511    0.8048 H   0  0  0  0  0  0  0  0  0  0  0  0
    1.3750   -2.0174    1.9154 H   0  0  0  0  0  0  0  0  0  0  0  0
    1.4632   -1.1985   -1.8248 H   0  0  0  0  0  0  0  0  0  0  0  0
    1.4781    0.5495   -1.5981 H   0  0  0  0  0  0  0  0  0  0  0  0
    0.0178   -0.3796   -1.1987 H   0  0  0  0  0  0  0  0  0  0  0  0
    1.1587    2.2128    3.0272 H   0  0  0  0  0  0  0  0  0  0  0  0
    2.5859    2.1582    1.9468 H   0  0  0  0  0  0  0  0  0  0  0  0
    2.8042    2.2499    3.7220 H   0  0  0  0  0  0  0  0  0  0  0  0
    1.2106    0.2195    0.8917 H   0  0  0  0  0  0  0  0  0  0  0  0
    7.2703   -2.3985    1.8941 H   0  0  0  0  0  0  0  0  0  0  0  0
  1  3  1  0  0  0  0
  1  4  2  0  0  0  0
  1 16  1  0  0  0  0
  2  4  1  0  0  0  0
  2  6  2  0  0  0  0
  2 17  1  0  0  0  0
  3  5  2  0  0  0  0
  3  7  1  0  0  0  0
  4 13  1  0  0  0  0
  5  6  1  0  0  0  0
  5 14  1  0  0  0  0
  6 15  1  0  0  0  0
  7 11  1  0  0  0  0
  7 12  2  0  0  0  0
  8 11  1  0  0  0  0
  8 18  1  0  0  0  0
  8 19  1  0  0  0  0
  8 20  1  0  0  0  0
  9 11  1  0  0  0  0
  9 21  1  0  0  0  0
  9 22  1  0  0  0  0
  9 23  1  0  0  0  0
 10 14  1  0  0  0  0
 10 24  1  0  0  0  0
 10 25  1  0  0  0  0
 10 26  1  0  0  0  0
 11 27  1  0  0  0  0
 13 28  1  0  0  0  0
M  END
$$$$
