26   
torsion grid (-165,)
C       -7.3321631858   -0.6323275487   -0.5203699976
C       -5.9492774982   -0.3727769189   -0.2871383749
C        0.8791403236    0.6562424706    2.1606170559
C       -7.9985315126   -0.9776800072    0.6299237941
C       -5.5831866417   -0.5242015846    1.0366586919
C       -0.1778749996    0.5929676976    1.2610272114
C        0.5652263214    0.3734333921    3.5023241677
C       -1.6040212867    0.0033142005    2.9464670876
C       -4.2569564723   -0.3322098534    1.5872046441
C        0.0073714214    0.8726958564   -0.2054735371
N       -1.4323587347    0.2677883068    1.6479973253
N       -0.6484609861    0.0371743091    3.9092813983
N       -4.0641148172   -0.5110420895    2.8544811035
N       -2.8439292387   -0.3473187019    3.4360123118
O        1.5551511238    0.4050915380    4.4246555356
S       -6.9545385193   -0.9924876043    2.0142300478
H       -7.8102409718   -0.5665142236   -1.4922597902
H       -5.2431315635   -0.0845406249   -1.0599449047
H        1.8906128429    0.9075507086    1.8650759941
H       -9.0468776827   -1.2248482782    0.7424848282
H       -3.4660869088   -0.0409470804    0.9005930980
H       -0.2974911383    0.0003452171   -0.7922460226
H       -0.6341599122    1.7067746942   -0.5075117357
H        1.0444346864    1.1180426998   -0.4445111079
H       -2.8602221855   -0.5215468659    4.4323590860
H        1.2105585118   -0.0414658566    5.2197676611
26   
torsion grid (-150,)
C       -7.3299809327   -0.6451285150   -0.5261403721
C       -5.9490793399   -0.3769031606   -0.2910514361
C        0.8701903287    0.6678056502    2.1774946445
C       -7.9984178654   -0.9889934971    0.6234049860
C       -5.5862934914   -0.5204260631    1.0345232006
C       -0.1832289716    0.6036571106    1.2724074052
C        0.5497329024    0.4040946586    3.5209630786
C       -1.6155718805    0.0269247407    2.9565520583
C       -4.2627250406   -0.3186826503    1.5877943854
C        0.0105792893    0.8662399144   -0.1961683876
N       -1.4394118142    0.2858437800    1.6569939935
N       -0.6644086976    0.0651898037    3.9232710087
N       -4.0746566705   -0.4912452892    2.8566390012
N       -2.8572912117   -0.3224888299    3.4424003546
O        1.5423143598    0.4326002182    4.4470370877
S       -6.9579288861   -0.9916759025    2.0103702017
H       -7.8056697042   -0.5862097468   -1.4996305844
H       -5.2424609582   -0.0882404928   -1.0632780200
H        1.8849476872    0.9081861784    1.8841983867
H       -9.0457743982   -1.2412238336    0.7340026709
H       -3.4710139943   -0.0264677704    0.9025379081
H       -0.3000450243   -0.0087967361   -0.7758277945
H       -0.6218080504    1.7033829847   -0.5089302619
H        1.0507535046    1.1001188646   -0.4331658525
H       -2.8776689005   -0.4889210308    4.4400679516
H        1.2984968185   -0.1959877683    5.1494650439
26   
torsion grid (-135,)
C       -7.3300785187   -0.6560484508   -0.5307791004
C       -5.9502783699   -0.3831082845   -0.2947879019
C        0.8618121102    0.6786301137    2.1861033113
C       -7.9992539523   -0.9958243034    0.6195676217
C       -5.5892390572   -0.5190056365    1.0321011188
C       -0.1886421836    0.6104990333    1.2759740139
C        0.5381983954    0.4278727579    3.5303717514
C       -1.6238971141    0.0444176008    2.9608191315
C       -4.2671177879   -0.3107992559    1.5863172214
C        0.0108000971    0.8612715779   -0.1939173543
N       -1.4447496624    0.2960331825    1.6594647362
N       -0.6762021445    0.0893441305    3.9303439934
N       -4.0822027809   -0.4765152745    2.8565473597
N       -2.8669931751   -0.3025224336    3.4449371878
O        1.5333645019    0.4656651740    4.4624488030
S       -6.9611066050   -0.9888562560    2.0082450069
H       -7.8044388577   -0.6031964183   -1.5052687381
H       -5.2432088645   -0.0964003895   -1.0673318101
H        1.8779078966    0.9160245698    1.8950150000
H       -9.0461367175   -1.2501321890    0.7298486292
H       -3.4748848813   -0.0200361094    0.9010342791
H       -0.2970629212   -0.0183384135   -0.7681208412
H       -0.6205702762    1.6957079920   -0.5157900386
H        1.0518124972    1.0938653787   -0.4284754079
H       -2.8897118721   -0.4618767840    4.4438042248
H        1.4287793050   -0.3072001803    5.0429925040
26   
torsion grid (-120,)
C       -7.3260779396   -0.6577284248   -0.5456186536
C       -5.9465327222   -0.3906373961   -0.3016617195
C        0.8475392157    0.6799047575    2.2233205297
C       -8.0048388750   -0.9852090294    0.6026904130
C       -5.5953110523   -0.5186457474    1.0286691704
C       -0.1954032626    0.6060066200    1.3030560078
C        0.5160356139    0.4329056962    3.5654297284
C       -1.6411705770    0.0482786196    2.9817460332
C       -4.2759914141   -0.3138517397    1.5907652787
C        0.0144888182    0.8540578848   -0.1658733539
N       -1.4523865168    0.2913993999    1.6792972558
N       -0.7011412204    0.0989057816    3.9581879368
N       -4.0995906199   -0.4705727954    2.8633753318
N       -2.8878664490   -0.2959894201    3.4583512235
O        1.5052447287    0.4900872976    4.5124509672
S       -6.9764865069   -0.9736879295    1.9985934253
H       -7.7933568754   -0.6095454826   -1.5237681270
H       -5.2325282029   -0.1135401046   -1.0713274028
H        1.8645461352    0.9227767020    1.9398696401
H       -9.0538491086   -1.2329350604    0.7075923770
H       -3.4779137023   -0.0325303600    0.9083361669
H       -0.2942013187   -0.0244259425   -0.7412893531
H       -0.6103132151    1.6915422853   -0.4926957351
H        1.0581369838    1.0812650925   -0.3939499261
H       -2.9173834368   -0.4472215582    4.4584118005
H        1.5693443996   -0.3758908616    4.9474491274
26   
torsion grid (-105,)
C       -7.3275330729   -0.6610451628   -0.5532302928
C       -5.9480044576   -0.3966605409   -0.3063783158
C        0.8386321076    0.6804148386    2.2335115483
C       -8.0106191821   -0.9801520924    0.5948874346
C       -5.6012639074   -0.5182926672    1.0257637057
C       -0.2004517153    0.5991811767    1.3083179358
C        0.5059486190    0.4293515761    3.5743654614
C       -1.6502306683    0.0493777887    2.9860458419
C       -4.2831139490   -0.3141547889    1.5908264280
C        0.0131820215    0.8490425460   -0.1597766940
N       -1.4569830356    0.2831955175    1.6820318425
N       -0.7129785913    0.1031568292    3.9649419038
N       -4.1096339153   -0.4638127124    2.8647560860
N       -2.8991680026   -0.2878517560    3.4615599714
O        1.4864274711    0.5136027825    4.5356972846
S       -6.9866872398   -0.9639094680    1.9939554618
H       -7.7916870452   -0.6169283173   -1.5330602156
H       -5.2308173146   -0.1259152100   -1.0753509373
H        1.8535390629    0.9358193927    1.9529665051
H       -9.0606646248   -1.2242284346    0.6979411414
H       -3.4826904070   -0.0390043973    0.9086478232
H       -0.2878939671   -0.0314044208   -0.7362726239
H       -0.6153494679    1.6826471185   -0.4892019313
H        1.0563660716    1.0822052185   -0.3840366722
H       -2.9304493033   -0.4341843869    4.4624069839
H        1.7420002319   -0.3810346181    4.8119731819
26   
torsion grid (-90,)
C       -7.3287419014   -0.6561231293   -0.5673012792
C       -5.9489105191   -0.3987841010   -0.3148372869
C        0.8237626041    0.6712904073    2.2691678899
C       -8.0198476922   -0.9662599354    0.5784908340
C       -5.6098621165   -0.5167145635    1.0196164029
C       -0.2065170508    0.5834014654    1.3346796108
C        0.4837171608    0.4089406091    3.6067541697
C       -1.6688871515    0.0374165908    3.0026195938
C       -4.2934747500   -0.3179335250    1.5904961866
C        0.0162373301    0.8407760188   -0.1307951935
N       -1.4648104277    0.2642104513    1.6988362941
N       -0.7389153795    0.0909081812    3.9886849471
N       -4.1296240285   -0.4636620494    2.8661746174
N       -2.9222925282   -0.2932099007    3.4706010134
O        1.4437669935    0.5200555033    4.5888773292
S       -7.0028582747   -0.9499342510    1.9825740753
H       -7.7876123303   -0.6135123993   -1.5496775436
H       -5.2262366626   -0.1356422213   -1.0813143431
H        1.8368477956    0.9422927737    1.9958581230
H       -9.0718440621   -1.2036861183    0.6771361198
H       -3.4874547613   -0.0504462713    0.9118668999
H       -0.2743101283   -0.0397875827   -0.7125461564
H       -0.6154722206    1.6711031138   -0.4622714401
H        1.0595479372    1.0814379248   -0.3465206500
H       -2.9605648034   -0.4360739980    4.4717961171
H        1.8919321099   -0.3326501147    4.7052599572
26   
torsion grid (-75,)
C       -7.3300731185   -0.6499403130   -0.5777573998
C       -5.9499229605   -0.3993660796   -0.3202613399
C        0.8135992657    0.6597213912    2.2914341719
C       -8.0273952152   -0.9534055553    0.5660564985
C       -5.6167626676   -0.5157007180    1.0158214941
C       -0.2109109695    0.5678412562    1.3519404036
C        0.4704180136    0.3839981527    3.6273305648
C       -1.6809189304    0.0237238513    3.0128451284
C       -4.3016895798   -0.3225877127    1.5916733078
C        0.0169693613    0.8337894849   -0.1112608170
N       -1.4707329694    0.2460939406    1.7093852469
N       -0.7551602914    0.0739583570    4.0031069383
N       -4.1432856876   -0.4658583161    2.8683401884
N       -2.9374968055   -0.2997423037    3.4768917982
O        1.4091660622    0.5136664796    4.6257058538
S       -7.0159567688   -0.9389807158    1.9741783617
H       -7.7847348227   -0.6074271977   -1.5620971146
H       -5.2227431031   -0.1421168363   -1.0844714737
H        1.8239829367    0.9443650048    2.0206330845
H       -9.0810315758   -1.1849718862    0.6610704668
H       -3.4915821203   -0.0611287328    0.9155731621
H       -0.2641630390   -0.0466957504   -0.6977928014
H       -0.6193394133    1.6605917849   -0.4425743448
H        1.0595931698    1.0825626166   -0.3212693958
H       -2.9794949233   -0.4417037686    4.4781214258
H        2.0300433702   -0.2311567193    4.5903617936
26   
torsion grid (-60,)
C       -7.3305940929   -0.6418188472   -0.5866724106
C       -5.9503644141   -0.3965619651   -0.3244810073
C        0.8067505586    0.6409459833    2.3104324275
C       -8.0331309497   -0.9423999179    0.5547140075
C       -5.6224752410   -0.5139968487    1.0128071088
C       -0.2143699242    0.5508521096    1.3683157908
C        0.4594551815    0.3545539990    3.6451361055
C       -1.6910234671    0.0075754154    3.0225426588
C       -4.3085786392   -0.3260358409    1.5930883090
C        0.0181949939    0.8244850331   -0.0927707181
N       -1.4763801370    0.2295930466    1.7198431401
N       -0.7688184238    0.0516102098    4.0158848619
N       -4.1550282960   -0.4702829019    2.8702028759
N       -2.9504571063   -0.3099602598    3.4826032220
O        1.3800254454    0.4845681315    4.6546759962
S       -7.0266231985   -0.9316715106    1.9663965242
H       -7.7816353670   -0.5977533980   -1.5726116630
H       -5.2194694112   -0.1423575617   -1.0861683343
H        1.8160584891    0.9310694865    2.0396681275
H       -9.0879794044   -1.1698991739    0.6460361883
H       -3.4950777337   -0.0677182307    0.9198446736
H       -0.2570854805   -0.0548479747   -0.6838156880
H       -0.6203506475    1.6498925519   -0.4230988337
H        1.0606574316    1.0780092238   -0.2981247532
H       -2.9957033157   -0.4540389673    4.4834093761
H        2.1330289106   -0.1039218321    4.4857357286
26   
torsion grid (-45,)
C       -7.3336251560   -0.6329266559   -0.5929218220
C       -5.9529840671   -0.3925006215   -0.3282994434
C        0.8026783452    0.6224272386    2.3223209521
C       -8.0391007086   -0.9330824128    0.5467535536
C       -5.6276219924   -0.5131495999    1.0092954737
C       -0.2173238574    0.5375353437    1.3795384589
C        0.4512101442    0.3297187630    3.6562328011
C       -1.6987851722   -0.0061093894    3.0283043859
C       -4.3139952643   -0.3304935729    1.5919553813
C        0.0203008747    0.8164023568   -0.0797548122
N       -1.4813771011    0.2184970840    1.7263659089
N       -0.7791765929    0.0312376490    4.0232141932
N       -4.1635646533   -0.4778505853    2.8690282681
N       -2.9599832153   -0.3220274954    3.4845770276
O        1.3589405709    0.4468766571    4.6716442169
S       -7.0346545997   -0.9278474839    1.9599639532
H       -7.7829271353   -0.5858761808   -1.5795186800
H       -5.2200564079   -0.1395058810   -1.0884373565
H        1.8123769363    0.9111308764    2.0494750016
H       -9.0948171504   -1.1573680570    0.6360059729
H       -3.4983800245   -0.0734656736    0.9207718934
H       -0.2542279565   -0.0605638203   -0.6746140342
H       -0.6165241028    1.6436099898   -0.4087640115
H        1.0636544135    1.0694704677   -0.2814649152
H       -3.0075121823   -0.4703135542    4.4846665885
H        2.2005991002    0.0489230052    4.3968400974
26   
torsion grid (-30,)
C       -7.3344015775   -0.6215115590   -0.6014143320
C       -5.9540733634   -0.3849755338   -0.3315235506
C        0.7965860606    0.6046273725    2.3342348387
C       -8.0440303392   -0.9255172416    0.5346342149
C       -5.6329805403   -0.5124091787    1.0064525816
C       -0.2223150857    0.5270943656    1.3901435352
C        0.4425418928    0.3127718115    3.6688391368
C       -1.7055067847   -0.0202087018    3.0352538484
C       -4.3208054044   -0.3350951581    1.5942733626
C        0.0168934723    0.8071978888   -0.0687504307
N       -1.4876117898    0.2105302410    1.7341483117
N       -0.7890190514    0.0137060338    4.0319326487
N       -4.1711572153   -0.4881050202    2.8707459248
N       -2.9678188003   -0.3366796788    3.4880043408
O        1.3450670032    0.4025261840    4.6853413684
S       -7.0437636127   -0.9287239308    1.9508503320
H       -7.7805677913   -0.5690853667   -1.5891648592
H       -5.2183394451   -0.1299751534   -1.0882759398
H        1.8083657882    0.8844304814    2.0580601187
H       -9.1004420919   -1.1481866934    0.6196316142
H       -3.5034045855   -0.0764508901    0.9259175344
H       -0.2597674869   -0.0682732406   -0.6647714395
H       -0.6176573923    1.6364898577   -0.3969330287
H        1.0609827389    1.0577556163   -0.2699135784
H       -3.0166556726   -0.4899758560    4.4872633322
H        2.2322041197    0.2101935983    4.3407688377
26   
torsion grid (-15,)
C       -7.3350526975   -0.6205577982   -0.6118013471
C       -5.9593388965   -0.3657874522   -0.3349583656
C        0.7819838423    0.6199367779    2.3551435204
C       -8.0332141482   -0.9966094469    0.5096882666
C       -5.6302167641   -0.5516119917    0.9941784191
C       -0.2402637401    0.5711930899    1.4130792819
C        0.4353916507    0.2677207299    3.6776243246
C       -1.7074030353   -0.0793676702    3.0348495156
C       -4.3200749581   -0.3730810212    1.5861480215
C       -0.0091983331    0.9168031504   -0.0330287534
N       -1.4989528616    0.2184362140    1.7455815629
N       -0.7889939353   -0.0728806335    4.0292930183
N       -4.1638372163   -0.5861239865    2.8531107641
N       -2.9617893989   -0.4424947428    3.4746807298
O        1.3397286444    0.3015350404    4.6913457113
S       -7.0272751083   -1.0464241672    1.9210066396
H       -7.7862979622   -0.5297626791   -1.5944463736
H       -5.2327283583   -0.0568851562   -1.0803648011
H        1.7901686647    0.9186116486    2.0840588555
H       -9.0838947270   -1.2475559183    0.5865855131
H       -3.5109203589   -0.0631348247    0.9296469809
H       -0.2684559418    0.0613071625   -0.6647995332
H       -0.6616471163    1.7454841910   -0.3256130402
H        1.0290659729    1.1974081495   -0.2246139545
H       -3.0046893428   -0.6449418517    4.4654182940
H        2.2335667356    0.3580497498    4.3160440732
26   
torsion grid (0,)
C       -7.3374559040   -0.6100452958   -0.6055345111
C       -5.9611267948   -0.3561338239   -0.3309492755
C        0.7895610768    0.6059056812    2.3489596651
C       -8.0310262923   -0.9939174844    0.5161545587
C       -5.6271543883   -0.5503434544    0.9957901739
C       -0.2352930135    0.5671677496    1.4093508542
C        0.4421521704    0.2608759830    3.6733008846
C       -1.7003512278   -0.0878292603    3.0308887716
C       -4.3152083959   -0.3745947954    1.5845492536
C       -0.0042949611    0.9106770244   -0.0372816821
N       -1.4947179485    0.2185486467    1.7430730831
N       -0.7815054017   -0.0832275432    4.0245394819
N       -4.1565812898   -0.5960481537    2.8497342605
N       -2.9536619889   -0.4552483463    3.4702716227
O        1.3528905721    0.2602516818    4.6802466632
S       -7.0206593353   -1.0523378259    1.9240130134
H       -7.7920470445   -0.5132020022   -1.5860716730
H       -5.2371522530   -0.0418011326   -1.0766367947
H        1.8015230232    0.8872418831    2.0728821036
H       -9.0812207514   -1.2462492782    0.5950087741
H       -3.5079506016   -0.0597733706    0.9280135374
H       -0.2697497796    0.0566295366   -0.6683742222
H       -0.6522107442    1.7432409992   -0.3290059097
H        1.0352907913    1.1851653486   -0.2306134746
H       -2.9948284795   -0.6639841562    4.4597730874
H        2.2170771546    0.5246004570    4.3247450751
26   
torsion grid (15,)
C       -7.3386953416   -0.5985742099   -0.5977996115
C       -5.9613885467   -0.3474033999   -0.3256407195
C        0.7989618564    0.5928415766    2.3381403423
C       -8.0294353989   -0.9888609941    0.5234251483
C       -5.6238030588   -0.5501927559    0.9989037771
C       -0.2296970339    0.5638903803    1.4022947688
C        0.4522965442    0.2544570392    3.6642446063
C       -1.6913003639   -0.0955501970    3.0253518817
C       -4.3100491664   -0.3791502670    1.5850212120
C       -0.0007008978    0.9054300749   -0.0451041279
N       -1.4894907162    0.2191902199    1.7390842011
N       -0.7698323206   -0.0930359987    4.0169958269
N       -4.1470448715   -0.6080317692    2.8483574098
N       -2.9424881153   -0.4685696897    3.4660145199
O        1.3737270119    0.2216973486    4.6624818165
S       -7.0150487677   -1.0569377751    1.9279413969
H       -7.7960001405   -0.4953045893   -1.5764147563
H       -5.2393028810   -0.0290190317   -1.0714426429
H        1.8142166892    0.8571001132    2.0578489036
H       -9.0795980671   -1.2408857194    0.6036895092
H       -3.5047128808   -0.0607845177    0.9278498704
H       -0.2723365290    0.0526809210   -0.6752865903
H       -0.6449743587    1.7413725548   -0.3353481696
H        1.0397640984    1.1745614015   -0.2411689196
H       -2.9802107694   -0.6836060485    4.4543066329
H        2.1770203660    0.6801574710    4.3666287637
26   
torsion grid (30,)
C       -7.3421640467   -0.5893835062   -0.5958459131
C       -5.9645847184   -0.3389311595   -0.3244762021
C        0.8007454458    0.5772874178    2.3341692772
C       -8.0311095165   -0.9864211972    0.5241320414
C       -5.6249997092   -0.5490378815    0.9984075639
C       -0.2294127878    0.5584360363    1.3993195947
C        0.4539136086    0.2433934892    3.6607847841
C       -1.6906014200   -0.1034313352    3.0218989324
C       -4.3104683874   -0.3804500224    1.5833453245
C       -0.0010292503    0.8989907569   -0.0484127849
N       -1.4901279159    0.2182265095    1.7373965738
N       -0.7677496513   -0.1050999595    4.0132855630
N       -4.1460683638   -0.6164511153    2.8452187113
N       -2.9409589884   -0.4793297754    3.4622571652
O        1.3871642468    0.1816728502    4.6513095535
S       -7.0145681862   -1.0618685223    1.9266657224
H       -7.8009898200   -0.4808682611   -1.5731686188
H       -5.2438041154   -0.0159522109   -1.0695736753
H        1.8192416205    0.8269618460    2.0538484388
H       -9.0810088755   -1.2395370863    0.6044964222
H       -3.5062218243   -0.0579353257    0.9268557172
H       -0.2802207201    0.0488016916   -0.6787331734
H       -0.6396463076    1.7399498343   -0.3368526983
H        1.0409658238    1.1607064062   -0.2461999375
H       -2.9770821509   -0.7006130657    4.4492393773
H        2.1012212898    0.8096290778    4.4550247001
26   
torsion grid (45,)
C       -7.3435575029   -0.5808921108   -0.5855674800
C       -5.9646103682   -0.3338187668   -0.3182669863
C        0.8121729203    0.5687111126    2.3170394886
C       -8.0288775966   -0.9797231528    0.5359999655
C       -5.6204361958   -0.5482651657    1.0027852756
C       -0.2218861983    0.5551713653    1.3858909375
C        0.4689942230    0.2360527843    3.6437562637
C       -1.6782281623   -0.1106069188    3.0121729372
C       -4.3034696494   -0.3838634862    1.5833569601
C        0.0022405564    0.8962310665   -0.0623175369
N       -1.4818271927    0.2161529584    1.7286429178
N       -0.7508318331   -0.1135975236    4.0005862192
N       -4.1341850911   -0.6236934984    2.8439508188
N       -2.9265580856   -0.4885539670    3.4564665365
O        1.4182869014    0.1555088253    4.6242811318
S       -7.0075055385   -1.0611052169    1.9346813334
H       -7.8057623925   -0.4688487145   -1.5609068257
H       -5.2459317418   -0.0101604662   -1.0650838009
H        1.8321913009    0.8094855626    2.0362635378
H       -9.0789257902   -1.2311477656    0.6195469147
H       -3.5013226934   -0.0607835681    0.9246047870
H       -0.2805198857    0.0471472890   -0.6925446110
H       -0.6356083971    1.7387052511   -0.3481451271
H        1.0441229112    1.1560570510   -0.2629654042
H       -2.9583850044   -0.7137776987    4.4427154999
H        2.0130167391    0.9199260744    4.5587878208
26   
torsion grid (60,)
C       -7.3462658646   -0.5761104554   -0.5739802858
C       -5.9663401907   -0.3282753208   -0.3126279694
C        0.8239889483    0.5578129143    2.2986173503
C       -8.0272676740   -0.9773270350    0.5493774399
C       -5.6169681345   -0.5446516972    1.0067359454
C       -0.2126765703    0.5483069916    1.3693033315
C        0.4863254161    0.2223083471    3.6242715086
C       -1.6644081635   -0.1179715712    2.9996840355
C       -4.2977318273   -0.3802280449    1.5819836087
C        0.0070818085    0.8925342687   -0.0787711322
N       -1.4715575144    0.2106536991    1.7162893493
N       -0.7331349716   -0.1241336617    3.9854938943
N       -4.1231134451   -0.6227727469    2.8413849287
N       -2.9122186838   -0.4922674721    3.4484668917
O        1.4519145654    0.1347155150    4.5955585239
S       -6.9998825457   -1.0599903907    1.9435043997
H       -7.8125341887   -0.4628796644   -1.5472277349
H       -5.2510409183   -0.0029450387   -1.0619708620
H        1.8447417091    0.7952743535    2.0196374820
H       -9.0767927005   -1.2296906139    0.6366807560
H       -3.4986242678   -0.0554439496    0.9203998045
H       -0.2769137279    0.0446160328   -0.7100532205
H       -0.6317529117    1.7353597781   -0.3613828026
H        1.0484090510    1.1528594580   -0.2814180781
H       -2.9401984595   -0.7200742957    4.4342389112
H        1.8997756208    0.9908892317    4.6857480201
26   
torsion grid (75,)
C       -7.3468535404   -0.5702233856   -0.5597789563
C       -5.9646025460   -0.3282646790   -0.3053547947
C        0.8404396794    0.5558293562    2.2620576307
C       -8.0226522428   -0.9651825497    0.5689239219
C       -5.6085730616   -0.5425614998    1.0126081757
C       -0.2028400093    0.5439772468    1.3389213440
C        0.5142505756    0.2119751557    3.5863613218
C       -1.6435332317   -0.1219537953    2.9807759192
C       -4.2855469632   -0.3828892007    1.5804722648
C        0.0047443446    0.8928671224   -0.1097983872
N       -1.4581816542    0.2044135589    1.6955915243
N       -0.7036970924   -0.1301926732    3.9589257618
N       -4.1039013132   -0.6229534688    2.8393874213
N       -2.8889087183   -0.4938917924    3.4385406983
O        1.4980720119    0.1382586411    4.5463462996
S       -6.9886735025   -1.0490418126    1.9581382467
H       -7.8178250846   -0.4575673637   -1.5308419805
H       -5.2517376621   -0.0083274018   -1.0593038849
H        1.8588612724    0.8000591250    1.9820605819
H       -9.0727834601   -1.2125814455    0.6627454760
H       -3.4889919562   -0.0631576570    0.9133738669
H       -0.2739319721    0.0428238915   -0.7407218821
H       -0.6442206476    1.7293942582   -0.3878821194
H        1.0423215592    1.1635371950   -0.3177269424
H       -2.9106043183   -0.7219088552    4.4243956702
H        1.7716237110    1.0327124728    4.8044665409
26   
torsion grid (90,)
C       -7.3459327662   -0.5678516135   -0.5526251109
C       -5.9620812623   -0.3306872713   -0.3025074464
C        0.8482908730    0.5532401787    2.2497225315
C       -8.0212432852   -0.9553685156    0.5789491039
C       -5.6045978728   -0.5412430552    1.0156679514
C       -0.1966856995    0.5352730277    1.3276835673
C        0.5278339044    0.1985131018    3.5707239048
C       -1.6345583364   -0.1274493959    2.9746491886
C       -4.2795420576   -0.3847966151    1.5796548534
C        0.0051921602    0.8908603068   -0.1201753645
N       -1.4501002681    0.1930045936    1.6876885130
N       -0.6912319693   -0.1366372755    3.9494103814
N       -4.0968748312   -0.6206163922    2.8392162440
N       -2.8805680201   -0.4932414554    3.4362200520
O        1.5209052374    0.1531962966    4.5248400883
S       -6.9847582846   -1.0380230968    1.9663224750
H       -7.8184860890   -0.4571718254   -1.5231409412
H       -5.2494503690   -0.0169294707   -1.0592806791
H        1.8643702838    0.8101355172    1.9739289643
H       -9.0722155411   -1.1979415213    0.6758799440
H       -3.4830151125   -0.0712705155    0.9095814706
H       -0.2711321232    0.0415805678   -0.7532193039
H       -0.6482791265    1.7252851660   -0.3939628149
H        1.0410811286    1.1665283958   -0.3296727619
H       -2.9012758252   -0.7198506096    4.4223697271
H        1.6047616693    1.0213010918    4.9501021729
26   
torsion grid (105,)
C       -7.3479248744   -0.5698748434   -0.5399328941
C       -5.9625461829   -0.3336913536   -0.2973207250
C        0.8621498943    0.5588534256    2.2266352365
C       -8.0183501530   -0.9502555289    0.5969378385
C       -5.5988581813   -0.5376950210    1.0201548083
C       -0.1855795542    0.5307310452    1.3080857007
C        0.5475262397    0.1953998818    3.5457835499
C       -1.6191607981   -0.1263228401    2.9616517479
C       -4.2709844760   -0.3803485857    1.5772502434
C        0.0102226609    0.8907342584   -0.1394559869
N       -1.4371229135    0.1848832534    1.6722254595
N       -0.6721127050   -0.1327959981    3.9325625366
N       -4.0844451845   -0.6102500780    2.8373067967
N       -2.8653420273   -0.4843193443    3.4292569929
O        1.5444808526    0.1860720888    4.4937874489
S       -6.9753762314   -1.0271283744    1.9798280425
H       -7.8248595606   -0.4635910946   -1.5087945261
H       -5.2530045150   -0.0251309299   -1.0591049151
H        1.8744711288    0.8312103001    1.9527588848
H       -9.0692295419   -1.1906225699    0.7001881120
H       -3.4765343674   -0.0717704672    0.9024307096
H       -0.2602058860    0.0397395110   -0.7728288439
H       -0.6508719288    1.7198306662   -0.4109457977
H        1.0434444722    1.1748402573   -0.3507269874
H       -2.8839321427   -0.7066525608    4.4163313362
H        1.4458849237    0.9607230627    5.0702108595
26   
torsion grid (120,)
C       -7.3433705764   -0.5727044528   -0.5307725012
C       -5.9563922653   -0.3410431065   -0.2928277438
C        0.8705297133    0.5709019032    2.2059378694
C       -8.0142744471   -0.9414081570    0.6096301986
C       -5.5916892499   -0.5369345336    1.0255544754
C       -0.1793605648    0.5306989789    1.2915190014
C        0.5636350476    0.2045233340    3.5264390391
C       -1.6061490541   -0.1198284565    2.9530687757
C       -4.2621237548   -0.3816814880    1.5793478870
C        0.0074881940    0.8905099756   -0.1572583329
N       -1.4289143067    0.1803625287    1.6609281559
N       -0.6558669992   -0.1188912836    3.9208336655
N       -4.0722949695   -0.6021232232    2.8405609943
N       -2.8509517501   -0.4736573680    3.4276424952
O        1.5593376594    0.2293756743    4.4679845782
S       -6.9689869519   -1.0127204792    1.9910850752
H       -7.8213783142   -0.4714583767   -1.4996348643
H       -5.2467684336   -0.0415377350   -1.0581475330
H        1.8783786380    0.8574663070    1.9306836553
H       -9.0661194291   -1.1760339670    0.7162799958
H       -3.4678042794   -0.0818401985    0.9004491071
H       -0.2589078381    0.0362574064   -0.7880131924
H       -0.6613669330    1.7138148145   -0.4273115673
H        1.0375824309    1.1821620450   -0.3733421194
H       -2.8671522982   -0.6889446416    4.4162066416
H        1.3075220018    0.8514507553    5.1700237384
26   
torsion grid (135,)
C       -7.3423134775   -0.5816028733   -0.5228930065
C       -5.9546458944   -0.3490826606   -0.2897451883
C        0.8787548460    0.5840143037    2.1854678792
C       -8.0104410234   -0.9407933812    0.6221513901
C       -5.5867040294   -0.5346761716    1.0292103213
C       -0.1738886943    0.5353277675    1.2766313750
C        0.5747245468    0.2226938898    3.5089342888
C       -1.5979814938   -0.1047574684    2.9444988642
C       -4.2556690499   -0.3760203857    1.5785082250
C        0.0082829008    0.8894377228   -0.1740990783
N       -1.4234218542    0.1849895318    1.6504443249
N       -0.6447601885   -0.0963619971    3.9095862671
N       -4.0642473298   -0.5869617850    2.8410561195
N       -2.8416194474   -0.4548602662    3.4249773026
O        1.5657780201    0.2683561109    4.4450231421
S       -6.9619996551   -1.0018448046    2.0017628608
H       -7.8225644385   -0.4877007076   -1.4913942622
H       -5.2466074194   -0.0561199980   -1.0590411048
H        1.8840787796    0.8757949175    1.9066411318
H       -9.0621723351   -1.1738452789    0.7332356185
H       -3.4622187304   -0.0821372464    0.8959798419
H       -0.2597369713    0.0323805881   -0.8003496032
H       -0.6620987013    1.7111639510   -0.4451597900
H        1.0374571658    1.1809082338   -0.3947747348
H       -2.8566790104   -0.6622935087    4.4151247926
H        1.2059640945    0.6957963084    5.2407220757
26   
torsion grid (150,)
C       -7.3415755698   -0.5925216239   -0.5160614303
C       -5.9540750883   -0.3551382857   -0.2867914546
C        0.8840995938    0.6042828060    2.1642974272
C       -8.0069228582   -0.9463107384    0.6322701016
C       -5.5834970365   -0.5317014104    1.0326495756
C       -0.1708629255    0.5471713863    1.2605219738
C        0.5819949698    0.2566958689    3.4928385667
C       -1.5914566549   -0.0823320080    2.9355813795
C       -4.2519040158   -0.3661148351    1.5786164627
C        0.0058418960    0.8876861379   -0.1941535492
N       -1.4202691209    0.1979124348    1.6397949062
N       -0.6360194068   -0.0636060809    3.8986598123
N       -4.0573822317   -0.5682852196    2.8420878225
N       -2.8331975905   -0.4310998216    3.4218215566
O        1.5687737929    0.3140751027    4.4237044342
S       -6.9559750986   -0.9962385121    2.0104457910
H       -7.8237061686   -0.5056776396   -1.4842884382
H       -5.2480697452   -0.0650373342   -1.0590336923
H        1.8881967128    0.8946741857    1.8797240032
H       -9.0578993768   -1.1811957730    0.7465926796
H       -3.4603166052   -0.0745972488    0.8929125099
H       -0.2695566629    0.0267663518   -0.8118091492
H       -0.6621174147    1.7103266049   -0.4685589832
H        1.0351182226    1.1728270715   -0.4224272558
H       -2.8467276785   -0.6288750864    4.4138659293
H        1.1477773570    0.5228541461    5.2764369452
26   
torsion grid (165,)
C       -7.3383599591   -0.6062689084   -0.5144398051
C       -5.9521145891   -0.3611078972   -0.2856679566
C        0.8856027837    0.6231615835    2.1571204745
C       -8.0029655254   -0.9569474199    0.6352632928
C       -5.5816500079   -0.5286970847    1.0349504310
C       -0.1707318230    0.5624839263    1.2565164878
C        0.5809415758    0.2950961343    3.4906858702
C       -1.5921384650   -0.0540659845    2.9360372716
C       -4.2512477755   -0.3538191704    1.5809694460
C        0.0060405029    0.8845580743   -0.2023425382
N       -1.4217075994    0.2195506638    1.6393149936
N       -0.6358195443   -0.0288754207    3.8983945176
N       -4.0564325637   -0.5479691416    2.8456527376
N       -2.8327274365   -0.4032991002    3.4247992456
O        1.5654782806    0.3491999411    4.4177761157
S       -6.9526723561   -0.9943192659    2.0143378369
H       -7.8202251587   -0.5269043285   -1.4834376150
H       -5.2469831302   -0.0718150013   -1.0590093874
H        1.8911950288    0.9033394184    1.8676061814
H       -9.0529256653   -1.1960783604    0.7501410339
H       -3.4604123654   -0.0625635427    0.8942876885
H       -0.2778931168    0.0193148582   -0.8099545846
H       -0.6557406735    1.7097022009   -0.4842356925
H        1.0370076188    1.1592280848   -0.4357573236
H       -2.8466727558   -0.5926235457    4.4184234299
H        1.1295768523    0.3315617199    5.2895801003
26   
torsion grid (180,)
C       -7.3384555326   -0.6213487270   -0.5096944815
C       -5.9531154445   -0.3680896700   -0.2842977344
C        0.8881616347    0.6452870724    2.1373881357
C       -7.9994686208   -0.9683007076    0.6432148180
C       -5.5798170995   -0.5259797133    1.0367223937
C       -0.1712748526    0.5817150416    1.2411294063
C        0.5828873465    0.3404010989    3.4765108847
C       -1.5898728880   -0.0213816388    2.9283250599
C       -4.2493238488   -0.3417764272    1.5794631943
C        0.0041559390    0.8816211095   -0.2225916590
N       -1.4228384149    0.2467816041    1.6302571018
N       -0.6308365075    0.0095749551    3.8879991129
N       -4.0519027948   -0.5276056040    2.8449538112
N       -2.8282981958   -0.3719511214    3.4216227310
O        1.5713628699    0.3844007074    4.3977121929
S       -6.9470961377   -0.9922569678    2.0209946944
H       -7.8221498428   -0.5501302511   -1.4784180515
H       -5.2505274759   -0.0799131808   -1.0603645562
H        1.8955266983    0.9118460632    1.8412348958
H       -9.0481261057   -1.2116088060    0.7611680921
H       -3.4609353369   -0.0506611149    0.8899059903
H       -0.2926650701    0.0122445714   -0.8179571883
H       -0.6487280797    1.7110796772   -0.5126414487
H        1.0373143771    1.1414072165   -0.4631900630
H       -2.8401625464   -0.5542788764    4.4165582252
H        1.1646029016    0.1451396278    5.2513003098
