64
0 1 C25H31N5O3
C                     0.644066599706    -4.202491373228    -2.683569487495
C                     2.285888141041    -5.613173833552    -1.597629539714
C                    -1.476100685926    -3.078998502278     3.570055464183
C                    -0.211092625871    -4.373148250780    -1.599084771751
C                     1.424530599294    -5.763499812631    -0.508973637525
C                    -1.441336420821    -4.214115967768     2.754242829097
C                     1.920996810647    -4.800842792922    -2.688526385679
C                    -0.787392606767    -1.923024797638     3.203308621525
C                     0.175081285877    -5.135430959684    -0.490323591084
C                    -0.026681342508    -1.974908215388     2.008944073354
C                    -0.706938636241    -4.140660704526     1.559908883244
C                    -0.036476984189     0.346099983055     3.646945283317
C                     1.723749042847     0.455239475398    -0.248765973898
C                     2.703878700286    -1.767580944668     0.340732136433
C                     4.268943124256    -4.575824837001    -3.586705416563
C                     2.808100607020    -3.348562294162    -4.554231596875
C                     2.330987274112     0.274213238108    -1.645575318088
C                     3.261278021706    -1.826869297880    -1.080359721177
C                     5.133303000534    -3.484977077514    -5.904859386593
C                     5.207018894135    -2.148054130869    -4.315505188893
C                     1.122128445722     0.040749825577     2.696534842458
C                     1.415262515542    -0.924560832632     0.339088702520
C                     4.352730842416    -3.398040299858    -4.582908752400
C                     2.317347488086    -0.463411289182     3.533450498485
C                    -1.950968296587    -0.519345066345     4.893556455309
N                    -0.008149090915    -3.051472735819     1.221108873351
N                    -0.889207228160    -0.698908647241     3.908264134418
N                     2.801301801719    -4.581015843183    -3.740987296922
N                     0.702837867407    -0.865733350437     1.625775300776
N                    -0.688753995865    -5.202126989496     0.647129334524
O                    -0.133018629850     1.449383115946     4.183740455027
O                     3.512258893279    -0.526203901509    -1.622524364083
O                     5.853153899389    -2.258850016674    -5.614157542236
H                     0.327658876944    -3.597427801001    -3.528346377909
H                     3.253871900887    -6.106050450673    -1.590221804904
H                    -2.067728660445    -3.098688572441     4.479345295578
H                    -1.183890390179    -3.890467862489    -1.589122015907
H                     1.742862712025    -6.351321770022     0.349281015438
H                    -1.995093807092    -5.109088126546     3.021350995302
H                     2.445546001477     0.999119377440     0.370750364596
H                     0.812494773351     1.060875585617    -0.318055882227
H                     2.483466417052    -2.780348114586     0.686719378283
H                     3.455037622670    -1.323120121120     1.000821407145
H                     4.758334061673    -5.507870886570    -3.893887850133
H                     4.601135123691    -4.313463718466    -2.572178531332
H                     2.411994954505    -2.469616425962    -4.027126887583
H                     2.301268332704    -3.445737232649    -5.521664308616
H                     1.585986979607    -0.183941437501    -2.317390383191
H                     2.626805923423     1.236682897335    -2.070825892324
H                     4.219503055274    -2.352529972523    -1.107631577826
H                     2.554205122624    -2.367326905065    -1.723830324466
H                     5.811624786284    -4.344173538910    -5.988944354176
H                     4.533873784448    -3.398899683648    -6.819665392983
H                     4.659548873976    -1.206680692657    -4.199766168802
H                     5.929019993458    -2.249043918452    -3.495085880976
H                     1.375226650566     1.003287314738     2.254859036236
H                     0.718743156324    -1.426843992722    -0.338913825327
H                     2.117197527251    -1.464751496373     3.927312275583
H                     2.492918850269     0.216789964684     4.372045127967
H                     3.226814429801    -0.505810374913     2.930877959185
H                    -1.778791500374    -1.150006448407     5.773038189519
H                    -2.919796522717    -0.776002956325     4.453612074586
H                    -1.949178211794     0.525159533242     5.200235297387
H                    -0.809707401187    -6.117912195980     1.061564801891
