
  -OEChem-05262117483D

 64 69  0     1  0  0  0  0  0999 V2000
    0.6441   -4.2025   -2.6836 C   0  0  0  0  0  0  0  0  0  0  0  0
    2.2859   -5.6132   -1.5976 C   0  0  0  0  0  0  0  0  0  0  0  0
   -1.4761   -3.0790    3.5701 C   0  0  0  0  0  0  0  0  0  0  0  0
   -0.2111   -4.3731   -1.5991 C   0  0  0  0  0  0  0  0  0  0  0  0
    1.4245   -5.7635   -0.5090 C   0  0  0  0  0  0  0  0  0  0  0  0
   -1.4413   -4.2141    2.7542 C   0  0  0  0  0  0  0  0  0  0  0  0
    1.9210   -4.8008   -2.6885 C   0  0  0  0  0  0  0  0  0  0  0  0
   -0.7874   -1.9230    3.2033 C   0  0  0  0  0  0  0  0  0  0  0  0
    0.1751   -5.1354   -0.4903 C   0  0  0  0  0  0  0  0  0  0  0  0
   -0.0267   -1.9749    2.0089 C   0  0  0  0  0  0  0  0  0  0  0  0
   -0.7069   -4.1407    1.5599 C   0  0  0  0  0  0  0  0  0  0  0  0
   -0.0365    0.3461    3.6469 C   0  0  0  0  0  0  0  0  0  0  0  0
    1.7237    0.4552   -0.2488 C   0  0  0  0  0  0  0  0  0  0  0  0
    2.7039   -1.7676    0.3407 C   0  0  0  0  0  0  0  0  0  0  0  0
    4.2689   -4.5758   -3.5867 C   0  0  0  0  0  0  0  0  0  0  0  0
    2.8081   -3.3486   -4.5542 C   0  0  0  0  0  0  0  0  0  0  0  0
    2.3310    0.2742   -1.6456 C   0  0  0  0  0  0  0  0  0  0  0  0
    3.2613   -1.8269   -1.0804 C   0  0  0  0  0  0  0  0  0  0  0  0
    5.1333   -3.4850   -5.9049 C   0  0  0  0  0  0  0  0  0  0  0  0
    5.2070   -2.1481   -4.3155 C   0  0  0  0  0  0  0  0  0  0  0  0
    1.1221    0.0407    2.6965 C   0  0  1  0  0  0  0  0  0  0  0  0
    1.4153   -0.9246    0.3391 C   0  0  0  0  0  0  0  0  0  0  0  0
    4.3527   -3.3980   -4.5829 C   0  0  0  0  0  0  0  0  0  0  0  0
    2.3173   -0.4634    3.5335 C   0  0  0  0  0  0  0  0  0  0  0  0
   -1.9510   -0.5193    4.8936 C   0  0  0  0  0  0  0  0  0  0  0  0
   -0.0081   -3.0515    1.2211 N   0  0  0  0  0  0  0  0  0  0  0  0
   -0.8892   -0.6989    3.9083 N   0  0  0  0  0  0  0  0  0  0  0  0
    2.8013   -4.5810   -3.7410 N   0  0  0  0  0  0  0  0  0  0  0  0
    0.7028   -0.8657    1.6258 N   0  0  1  0  0  0  0  0  0  0  0  0
   -0.6888   -5.2021    0.6471 N   0  0  0  0  0  0  0  0  0  0  0  0
   -0.1330    1.4494    4.1837 O   0  0  0  0  0  0  0  0  0  0  0  0
    3.5123   -0.5262   -1.6225 O   0  0  0  0  0  0  0  0  0  0  0  0
    5.8532   -2.2589   -5.6142 O   0  0  0  0  0  0  0  0  0  0  0  0
    0.3277   -3.5974   -3.5283 H   0  0  0  0  0  0  0  0  0  0  0  0
    3.2539   -6.1061   -1.5902 H   0  0  0  0  0  0  0  0  0  0  0  0
   -2.0677   -3.0987    4.4793 H   0  0  0  0  0  0  0  0  0  0  0  0
   -1.1839   -3.8905   -1.5891 H   0  0  0  0  0  0  0  0  0  0  0  0
    1.7429   -6.3513    0.3493 H   0  0  0  0  0  0  0  0  0  0  0  0
   -1.9951   -5.1091    3.0214 H   0  0  0  0  0  0  0  0  0  0  0  0
    2.4455    0.9991    0.3708 H   0  0  0  0  0  0  0  0  0  0  0  0
    0.8125    1.0609   -0.3181 H   0  0  0  0  0  0  0  0  0  0  0  0
    2.4835   -2.7803    0.6867 H   0  0  0  0  0  0  0  0  0  0  0  0
    3.4550   -1.3231    1.0008 H   0  0  0  0  0  0  0  0  0  0  0  0
    4.7583   -5.5079   -3.8939 H   0  0  0  0  0  0  0  0  0  0  0  0
    4.6011   -4.3135   -2.5722 H   0  0  0  0  0  0  0  0  0  0  0  0
    2.4120   -2.4696   -4.0271 H   0  0  0  0  0  0  0  0  0  0  0  0
    2.3013   -3.4457   -5.5217 H   0  0  0  0  0  0  0  0  0  0  0  0
    1.5860   -0.1839   -2.3174 H   0  0  0  0  0  0  0  0  0  0  0  0
    2.6268    1.2367   -2.0708 H   0  0  0  0  0  0  0  0  0  0  0  0
    4.2195   -2.3525   -1.1076 H   0  0  0  0  0  0  0  0  0  0  0  0
    2.5542   -2.3673   -1.7238 H   0  0  0  0  0  0  0  0  0  0  0  0
    5.8116   -4.3442   -5.9889 H   0  0  0  0  0  0  0  0  0  0  0  0
    4.5339   -3.3989   -6.8197 H   0  0  0  0  0  0  0  0  0  0  0  0
    4.6595   -1.2067   -4.1998 H   0  0  0  0  0  0  0  0  0  0  0  0
    5.9290   -2.2490   -3.4951 H   0  0  0  0  0  0  0  0  0  0  0  0
    1.3752    1.0033    2.2549 H   0  0  0  0  0  0  0  0  0  0  0  0
    0.7187   -1.4268   -0.3389 H   0  0  0  0  0  0  0  0  0  0  0  0
    2.1172   -1.4648    3.9273 H   0  0  0  0  0  0  0  0  0  0  0  0
    2.4929    0.2168    4.3720 H   0  0  0  0  0  0  0  0  0  0  0  0
    3.2268   -0.5058    2.9309 H   0  0  0  0  0  0  0  0  0  0  0  0
   -1.7788   -1.1500    5.7730 H   0  0  0  0  0  0  0  0  0  0  0  0
   -2.9198   -0.7760    4.4536 H   0  0  0  0  0  0  0  0  0  0  0  0
   -1.9492    0.5252    5.2002 H   0  0  0  0  0  0  0  0  0  0  0  0
   -0.8097   -6.1179    1.0616 H   0  0  0  0  0  0  0  0  0  0  0  0
  1  4  1  0  0  0  0
  1  7  2  0  0  0  0
  1 34  1  0  0  0  0
  2  5  2  0  0  0  0
  2  7  1  0  0  0  0
  2 35  1  0  0  0  0
  3  6  2  0  0  0  0
  3  8  1  0  0  0  0
  3 36  1  0  0  0  0
  4  9  2  0  0  0  0
  4 37  1  0  0  0  0
  5  9  1  0  0  0  0
  5 38  1  0  0  0  0
  6 11  1  0  0  0  0
  6 39  1  0  0  0  0
  7 28  1  0  0  0  0
  8 10  2  0  0  0  0
  8 27  1  0  0  0  0
  9 30  1  0  0  0  0
 10 26  1  0  0  0  0
 10 29  1  0  0  0  0
 11 26  2  0  0  0  0
 11 30  1  0  0  0  0
 12 21  1  0  0  0  0
 12 27  1  0  0  0  0
 12 31  2  0  0  0  0
 13 17  1  0  0  0  0
 13 22  1  0  0  0  0
 13 40  1  0  0  0  0
 13 41  1  0  0  0  0
 14 18  1  0  0  0  0
 14 22  1  0  0  0  0
 14 42  1  0  0  0  0
 14 43  1  0  0  0  0
 15 23  1  0  0  0  0
 15 28  1  0  0  0  0
 15 44  1  0  0  0  0
 15 45  1  0  0  0  0
 16 23  1  0  0  0  0
 16 28  1  0  0  0  0
 16 46  1  0  0  0  0
 16 47  1  0  0  0  0
 17 32  1  0  0  0  0
 17 48  1  0  0  0  0
 17 49  1  0  0  0  0
 18 32  1  0  0  0  0
 18 50  1  0  0  0  0
 18 51  1  0  0  0  0
 19 23  1  0  0  0  0
 19 33  1  0  0  0  0
 19 52  1  0  0  0  0
 19 53  1  0  0  0  0
 20 23  1  0  0  0  0
 20 33  1  0  0  0  0
 20 54  1  0  0  0  0
 20 55  1  0  0  0  0
 21 24  1  0  0  0  0
 21 29  1  0  0  0  0
 21 56  1  0  0  0  0
 22 29  1  0  0  0  0
 22 57  1  0  0  0  0
 24 58  1  0  0  0  0
 24 59  1  0  0  0  0
 24 60  1  0  0  0  0
 25 27  1  0  0  0  0
 25 61  1  0  0  0  0
 25 62  1  0  0  0  0
 25 63  1  0  0  0  0
 30 64  1  0  0  0  0
M  END
$$$$
