
  -OEChem-05262117483D

 29 30  0     0  0  0  0  0  0999 V2000
    3.5217    3.5010    0.3066 C   0  0  0  0  0  0  0  0  0  0  0  0
    5.1655    4.2798   -1.6530 C   0  0  0  0  0  0  0  0  0  0  0  0
    3.4109    2.9821   -0.9879 C   0  0  0  0  0  0  0  0  0  0  0  0
    5.2665    4.7827   -0.3414 C   0  0  0  0  0  0  0  0  0  0  0  0
    2.3275    1.9983   -1.3650 C   0  0  0  0  0  0  0  0  0  0  0  0
    0.6644   -0.8800    0.4866 C   0  0  0  0  0  0  0  0  0  0  0  0
   -0.3776    0.3968   -0.8376 C   0  0  0  0  0  0  0  0  0  0  0  0
    1.1074   -0.0144   -0.7131 C   0  0  0  0  0  0  0  0  0  0  0  0
   -1.8001   -0.6426    0.9507 C   0  0  0  0  0  0  0  0  0  0  0  0
   -2.1306   -1.9743    1.6025 C   0  0  0  0  0  0  0  0  0  0  0  0
    4.2352    3.3870   -1.9698 N   0  0  0  0  0  0  0  0  0  0  0  0
    4.4553    4.4089    0.6305 N   0  0  0  0  0  0  0  0  0  0  0  0
   -0.7280   -0.7855   -0.0109 N   0  0  0  0  0  0  0  0  0  0  0  0
    2.0697    1.0336   -0.4228 N   0  0  0  0  0  0  0  0  0  0  0  0
    1.6965    2.0913   -2.4106 O   0  0  0  0  0  0  0  0  0  0  0  0
   -2.7309   -2.8217    0.7078 F   0  0  0  0  0  0  0  0  0  0  0  0
   -3.0213   -1.7660    2.6343 F   0  0  0  0  0  0  0  0  0  0  0  0
    6.5100    5.9536    0.0291 Cl  0  0  0  0  0  0  0  0  0  0  0  0
    2.8357    3.2066    1.0975 H   0  0  0  0  0  0  0  0  0  0  0  0
    5.8435    4.6120   -2.4353 H   0  0  0  0  0  0  0  0  0  0  0  0
    1.0650   -1.8960    0.5627 H   0  0  0  0  0  0  0  0  0  0  0  0
    0.8180   -0.3495    1.4428 H   0  0  0  0  0  0  0  0  0  0  0  0
   -0.5648    1.3559   -0.3315 H   0  0  0  0  0  0  0  0  0  0  0  0
   -0.8176    0.4105   -1.8366 H   0  0  0  0  0  0  0  0  0  0  0  0
    1.4264   -0.6132   -1.5705 H   0  0  0  0  0  0  0  0  0  0  0  0
   -2.7003   -0.2908    0.4364 H   0  0  0  0  0  0  0  0  0  0  0  0
   -1.5646    0.0775    1.7562 H   0  0  0  0  0  0  0  0  0  0  0  0
   -1.2609   -2.4944    2.0169 H   0  0  0  0  0  0  0  0  0  0  0  0
    2.7748    0.8458    0.2797 H   0  0  0  0  0  0  0  0  0  0  0  0
  1  3  1  0  0  0  0
  1 12  2  0  0  0  0
  1 19  1  0  0  0  0
  2  4  2  0  0  0  0
  2 11  1  0  0  0  0
  2 20  1  0  0  0  0
  3  5  1  0  0  0  0
  3 11  2  0  0  0  0
  4 12  1  0  0  0  0
  4 18  1  0  0  0  0
  5 14  1  0  0  0  0
  5 15  2  0  0  0  0
  6  8  1  0  0  0  0
  6 13  1  0  0  0  0
  6 21  1  0  0  0  0
  6 22  1  0  0  0  0
  7  8  1  0  0  0  0
  7 13  1  0  0  0  0
  7 23  1  0  0  0  0
  7 24  1  0  0  0  0
  8 14  1  0  0  0  0
  8 25  1  0  0  0  0
  9 10  1  0  0  0  0
  9 13  1  0  0  0  0
  9 26  1  0  0  0  0
  9 27  1  0  0  0  0
 10 16  1  0  0  0  0
 10 17  1  0  0  0  0
 10 28  1  0  0  0  0
 14 29  1  0  0  0  0
M  END
$$$$
