29
0 1 C10ClF2H11N4O
C                     3.585038836439    -2.239926740164     4.032381622577
C                     4.460387828928     0.290180647139     3.841898919740
C                     3.001223454338    -1.327803731026     3.147853183518
C                     5.034282027347    -0.644332712342     4.721570967242
C                     1.852032647933    -1.762122121899     2.273473225629
C                    -0.906483419435    -0.023752875824     0.741860828992
C                     0.468399096607    -0.292428184463    -0.837225224696
C                     0.288020355261    -0.995740337529     0.531731776612
C                    -1.282526910831     1.496075315842    -1.213079810411
C                    -0.604468115571     2.458925008974    -2.171746198940
N                     3.444574201684    -0.062245040916     3.058912750439
N                     4.610180243917    -1.891967868695     4.823285859898
N                    -0.351173776485     0.836039243315    -0.328796824910
N                     1.392386698026    -0.793455723451     1.440965414679
O                     1.405951065717    -2.909964944612     2.338836157504
F                     0.325176448440     1.792147425162    -2.946017004793
F                     0.064251072346     3.448368926170    -1.498717704034
Cl                    6.371209143909    -0.146235010607     5.732411752193
H                     3.215158317467    -3.258542138485     4.095165879196
H                     4.829079043287     1.310671846377     3.780989056427
H                    -1.863101474108    -0.499621176466     0.471470726894
H                    -0.997912117844     0.457546280570     1.721151576508
H                     1.484485694624    -0.025367713000    -1.139579302518
H                    -0.018597536186    -0.850353121731    -1.652107899627
H                     0.055344712967    -2.058406669410     0.522222520346
H                    -1.987601694976     2.081767647175    -0.612806149208
H                    -1.874625868943     0.786939964456    -1.824004364212
H                    -1.313530154746     2.937843344180    -2.855110122740
H                     1.830631319214     0.120504461960     1.503977191039
