39
0 1 C15FH18N3O2
C                    -2.751295835919     0.776212050116     0.537724819650
C                    -1.722760497483     2.430995056962     1.951869712923
C                    -3.906894883094     0.803142957889     1.323486195331
C                    -2.868958827929     2.480524429890     2.748701068384
C                    -0.848534085653    -0.658982104985    -3.709746531816
C                     0.648594478051     0.799635163870    -3.484394188817
C                    -1.641412979486     1.576765421115     0.844201547784
C                    -3.940598571233     1.656799002682     2.420538155439
C                     2.786099328930     1.006064389113     1.347789018572
C                     2.593077633836    -0.477833315545     1.620216304761
C                     1.399889023262     0.415403581199     1.390075479516
C                    -0.079848777009    -0.210671728901     3.183871926702
C                    -0.403717549185     1.530277435996    -0.021805228517
C                     1.400021063560     0.165270530895    -1.140437077610
C                     0.520097672758     0.278967096289     0.133789672796
N                    -0.256755142168     0.379962233853    -4.360711565018
N                    -0.360483739322    -0.904057464722    -2.496310696269
N                     0.609508396208     0.046652082972    -2.362147964123
O                    -0.214648754936    -0.933072510480     0.296780836358
O                     0.708129073294     0.806444610925     2.549002215246
F                    -5.060476833744     1.693023220084     3.193827120603
H                    -2.716447368137     0.117730102263    -0.325465627910
H                    -0.867824272474     3.046619932084     2.213630109488
H                    -4.767651956877     0.182049803601     1.094790029163
H                    -2.936227295188     3.137277222414     3.610768120352
H                    -1.651400008689    -1.250968882820    -4.129537304306
H                     1.337939586027     1.623636816291    -3.617777194218
H                     3.042962539668     1.638321531513     2.191327242722
H                     3.234459415922     1.306992186183     0.406851389544
H                     2.881552425318    -1.192912803412     0.856692156705
H                     2.750794027754    -0.822045120228     2.637140182836
H                    -0.394025589195     0.212004466998     4.140593006886
H                     0.517135142937    -1.113993325086     3.358088166592
H                    -0.955776980414    -0.472071327153     2.587209122071
H                     0.211132245369     2.417501281511     0.161499164291
H                    -0.726981582936     1.583433752484    -1.066134834492
H                     2.017933291300     1.054180975308    -1.270058807817
H                     2.046067548049    -0.711921744572    -1.065233539867
H                    -0.577824259976    -1.192043751554    -0.574975524422
