64
0 1 C28H29N5O2
C                     1.591390947866    -3.187276086656    -8.784673491233
C                     1.226291470907    -2.421685242295    -7.672443569825
C                     1.799245781807    -4.563923017104    -8.638741889672
C                     1.066772043230    -3.029368045919    -6.424437809505
C                     1.652949317851    -5.169459493837    -7.390108514596
C                    -0.790265541594    -8.320622485013    -4.856097545763
C                    -1.222375030371    -6.538935395734    -6.426873003652
C                    -1.673868200999    -9.145587171164    -5.556115221435
C                    -2.096035132626    -7.369288344165    -7.122631453666
C                     3.293551523765    -3.488427916190    -2.398817960408
C                     2.740402998210    -3.640895729445    -3.636697412084
C                    -0.544180744578    -7.006830937892    -5.284482187905
C                     1.279180515861    -4.411094940004    -6.266117878394
C                    -2.339876318812    -8.685406492977    -6.697804776834
C                     0.391500122707    -6.167075791036    -4.521906341285
C                     1.117303492583    -5.058740275226    -4.956842901101
C                     2.879751603520    -4.392428314441    -1.366106937520
C                     1.485709782056    -5.517430552257    -2.772543793207
C                     4.204386108106    -2.156929469879     2.384440644227
C                     3.383364675900    -0.888909650647     2.610605660545
C                     2.069700496442    -1.390824265269     3.229809599273
C                    -5.280299296059   -10.457175287881    -7.433096712148
C                    -4.742416395301    -9.025454821327    -7.702646290331
C                    -3.909998480976   -10.814781139277    -6.793471237474
C                     1.959796401239    -2.841509855667     2.719192686588
C                    -3.287060683725    -9.555912693764    -7.493036551299
C                     3.750655814362    -4.577417887952     2.171646438452
C                     3.080157500913    -5.086530540330     0.901838677595
N                     0.632790568903    -6.435625330127    -3.187614315562
N                     2.023310795406    -5.369765683660    -1.539778474140
N                     1.817003757181    -4.631470186125    -3.826877833024
N                     3.353656079907    -3.229474069170     2.525391809802
N                    -2.670274058246    -9.815456187074    -8.807298981469
O                     5.398848876859    -2.220529177996     2.115924781974
O                     3.443270293161    -4.182738685525    -0.157698602980
H                     1.709683533754    -2.716417152118    -9.756984253754
H                     1.052048163603    -1.354011047172    -7.778704814402
H                     2.081525712646    -5.166103721847    -9.498393327050
H                     0.745219670210    -2.435134720321    -5.572343456621
H                     1.816279133659    -6.237076151521    -7.276747870895
H                    -0.284421653889    -8.681294024035    -3.966146807747
H                    -1.076094748654    -5.518620036792    -6.765100401468
H                    -1.840390542919   -10.159606252651    -5.202616293204
H                    -2.601077433276    -6.999108887694    -8.010773696814
H                     4.030608349744    -2.721889886956    -2.194091431633
H                     2.992854183370    -3.025077170172    -4.492112690638
H                     3.936343314404    -0.181018463677     3.230775337099
H                     3.225463398048    -0.419670919143     1.632466275637
H                     2.147002433497    -1.392842536567     4.321173777508
H                     1.198186578201    -0.792708932696     2.953922171472
H                    -5.475864507876   -11.012586241807    -8.355656693996
H                    -6.159388280236   -10.543674573570    -6.789382740259
H                    -4.941658811928    -8.575037420343    -8.679465065884
H                    -5.030258544844    -8.322535936889    -6.916742735317
H                    -3.947380532823   -10.713618300162    -5.705366859649
H                    -3.462435371906   -11.781899329251    -7.044922584628
H                     1.467240476092    -3.507875141639     3.435943750011
H                     1.401523948005    -2.892240503198     1.773448710293
H                     3.504375772122    -5.270037560383     2.987497587055
H                     4.835705802494    -4.562570217899     2.046893165042
H                     1.990929028982    -5.124361821295     0.991034385761
H                     3.426970227461    -6.096816207803     0.661835650760
H                    -3.270820086960   -10.431494762356    -9.356418330575
H                    -1.789511678144   -10.311901940435    -8.670552483382
