29
0 1 C10ClF3H10N4O
C                     3.755667387136     3.381658534488     0.052540052584
C                     6.095464133571     2.888881439726     1.248359827501
C                     4.172061937330     2.075490171386     0.329917807454
C                     5.654469669467     4.196632899955     0.967207356334
C                     3.355652019926     0.871110256573    -0.082325940201
C                     0.387771148490    -0.816333583591     1.055767644381
C                    -0.352140980132     0.320531293842    -0.568844038043
C                     1.075282742100    -0.071674312047    -0.117918648104
C                    -2.125216451155    -0.559979573624     0.953445198078
C                    -2.643697778581    -1.830252994551     1.609708337637
N                     5.354739553886     1.836221351472     0.922615159156
N                     4.504241850357     4.449017324118     0.371389494247
N                    -0.872979924327    -0.781555464627     0.271943501800
N                     2.008214041641     0.990651573675     0.169140541422
O                     3.866884259871    -0.097219024241    -0.627742207730
F                    -3.801091948316    -1.574585300967     2.273099256094
F                    -2.893663254338    -2.810862261172     0.719182780876
F                    -1.761359455828    -2.321805567956     2.518507103164
Cl                    6.663234650973     5.551267878809     1.416979261665
H                     2.817016004745     3.582721527099    -0.458953325731
H                     7.051513947171     2.711224283232     1.734712266417
H                     0.746614168579    -1.814218676354     1.316972394292
H                     0.343926858630    -0.192867095972     1.964962620761
H                    -0.630234219634     1.320668046220    -0.192390836483
H                    -0.599416642835     0.251410685178    -1.632665944782
H                     1.559961435833    -0.759048113203    -0.808330450334
H                    -2.070863315737     0.211493742197     1.742675235123
H                    -2.881648724987    -0.247694294794     0.227455991749
H                     1.706570177845     1.727991117871     0.794676508817
