64
0 1 C28H29N5O2
C                     9.996645151648    -4.729018104586     1.449352757049
C                     8.978526015715    -3.862750375127     1.037583194509
C                     9.667716921453    -5.992817386306     1.953832886290
C                     7.641583288426    -4.259303706271     1.125983977961
C                     8.332211571762    -6.384885485497     2.054327755594
C                     5.054600304944    -9.438924365656     0.538948764204
C                     6.807197543974    -8.063844699352    -0.392074121228
C                     5.505100686206   -10.518978111277    -0.218408590769
C                     7.249465494203    -9.148938979616    -1.147982250324
C                     3.908763497785    -3.583649275293     3.780376623766
C                     5.027303741011    -4.048481024279     3.152647227416
C                     5.706665788614    -8.194527641538     0.473588382964
C                     7.300442928817    -5.525176690601     1.636297015924
C                     6.610727301541   -10.395378692900    -1.073214177800
C                     5.208403729729    -7.079374487009     1.291963415814
C                     5.897258375099    -5.951019430012     1.734927355786
C                     2.705313553709    -4.353155935761     3.658549139402
C                     3.732776424568    -5.942988149819     2.392143850424
C                     0.162071390068    -2.555962176175     7.000098184490
C                     0.731402207643    -2.867853471988     8.382680287157
C                     0.288848491137    -4.312965847379     8.660050342499
C                     8.365982158483   -13.273937303440    -2.050663637336
C                     7.008625107933   -12.984787578176    -1.354836299032
C                     8.571138913622   -11.743012138663    -2.207279707788
C                     0.105218701970    -4.912490654036     7.251364880549
C                     7.046216094819   -11.546971387038    -1.954145984570
C                    -0.629928249371    -3.849608761819     5.048699052985
C                     0.394428187217    -4.574209867531     4.184511524433
N                     3.890356206098    -7.061036983212     1.707573968804
N                     2.615282729820    -5.484004925576     3.001106056374
N                     4.944578854111    -5.211193943574     2.437466290987
N                    -0.234598090182    -3.748316332497     6.438974376275
N                     6.345876981033   -11.560753283605    -3.256922162998
O                     0.078114499245    -1.452936567374     6.471703706291
O                     1.627614752511    -3.838870369770     4.286891037206
H                    11.036959710205    -4.423427129143     1.375604578346
H                     9.225090358412    -2.883680262758     0.634936329575
H                    10.453119525568    -6.671597503022     2.276071618028
H                     6.857372481349    -3.596016241959     0.768805484788
H                     8.076742102670    -7.364352665987     2.447870491751
H                     4.192892971769    -9.540034043628     1.191232099548
H                     7.313194273933    -7.108909163620    -0.486688852744
H                     4.991539124599   -11.475256222510    -0.141710217366
H                     8.104342313778    -9.022513204589    -1.809074645233
H                     3.916673247139    -2.664563405335     4.353051116339
H                     5.990602287544    -3.552910000846     3.187132886011
H                     1.821925745545    -2.775486288379     8.318768533822
H                     0.380756322467    -2.137380256105     9.114082145542
H                     1.003751508987    -4.883332307090     9.257511114613
H                    -0.670464710696    -4.316297086713     9.186101523465
H                     8.230583009076   -13.765840208034    -3.015493119999
H                     9.115068066187   -13.816556805910    -1.467835858663
H                     6.151918562899   -13.604081974456    -1.636541024827
H                     7.102455731117   -12.967223403372    -0.265362590507
H                     9.169487877934   -11.325087890614    -1.392734404496
H                     8.953718029326   -11.377681009089    -3.164926482958
H                     1.030685835244    -5.385971174809     6.893556068525
H                    -0.693166629997    -5.661652212914     7.209563505770
H                    -0.774342583450    -2.828587887943     4.688439446670
H                    -1.584879422289    -4.385446884792     4.965338433751
H                     0.065933718289    -4.603314254277     3.140655008176
H                     0.558490765292    -5.606003921565     4.507628473378
H                     6.508396938747   -10.666857254311    -3.722938602172
H                     5.340207225825   -11.602648941887    -3.084945078265
