24   
torsion grid (-165,)
C       -4.3999345627   -0.9802693366    5.0525975692
C       -4.4618569537   -0.4891661769    3.7443684999
C       -2.2159858809   -1.5259720552    4.7439546373
C       -2.2711427698   -1.0351384867    3.4279203068
C       -1.1513792293   -0.5771749682    1.2116699351
C       -0.0365808486   -0.5511811211    0.4173175132
C       -1.0318916767   -1.0975462896    2.5615132681
C       -0.9874815256    0.8585447463   -1.3269157461
C        1.2647475283   -0.1554634532   -1.6085621320
N       -3.2751855683   -1.5022143551    5.5610677665
N       -3.4030800440   -0.5131650883    2.9287296145
N        0.1311846157    0.1350126618   -0.7389899891
O        0.0029290618   -1.5805515129    3.0468704688
H       -5.2729567242   -0.9517485320    5.7022669932
H       -5.3849327139   -0.0683259181    3.3491361537
H       -1.2876150923   -1.9425134880    5.1230386554
H       -2.0944529845   -0.1321400196    0.9222257332
H        0.8513773261   -1.0635940180    0.7821617726
H       -1.4660194628    1.4826274138   -0.5672807775
H       -1.7415605865    0.1771883954   -1.7447532162
H       -0.6179957724    1.5046121205   -2.1262921417
H        0.9905620290   -0.8451386206   -2.4191811415
H        2.0671164384   -0.6101554576   -1.0242163979
H        1.6420818047    0.7706485296   -2.0539091761
24   
torsion grid (-150,)
C       -4.3755169880   -0.8771883706    5.0538834447
C       -4.4781637874   -0.5447457608    3.6991854427
C       -2.1821080493   -1.3936698231    4.7646294701
C       -2.2770731552   -1.0613408828    3.4019780820
C       -1.2022960397   -0.8069495788    1.1327496034
C       -0.0831201114   -0.7225169994    0.3445911500
C       -1.0511102679   -1.1927813025    2.5234126703
C       -0.9818018056    0.8925654720   -1.2454150874
C        1.2583209931   -0.1175689723   -1.6001607065
N       -3.2264404932   -1.3035439048    5.5959726472
N       -3.4330157690   -0.6325708976    2.8703540508
N        0.1175053728    0.0964684930   -0.7163213107
O        0.0009305939   -1.6029654107    3.0380552288
H       -5.2366044934   -0.7970704764    5.7150220432
H       -5.4210881416   -0.2003135817    3.2776312250
H       -1.2350689913   -1.7383935922    5.1687611277
H       -2.1459183279   -0.3649343525    0.8377239231
H        0.8101620971   -1.2405291724    0.6902457771
H       -1.5020086180    1.3918606060   -0.4238911873
H       -1.7068246561    0.2797000126   -1.7984674230
H       -0.5806245677    1.6527065820   -1.9197612971
H        0.9871636294   -0.7155918961   -2.4813584396
H        2.0483477897   -0.6395898753   -1.0564485247
H        1.6490637445    0.8461438641   -1.9415039725
24   
torsion grid (-135,)
C       -4.3495822526   -0.7847124258    5.0321754811
C       -4.4764287199   -0.5875878926    3.6533626844
C       -2.1420278960   -1.2500613481    4.7630480588
C       -2.2614983802   -1.0540279278    3.3759808575
C       -1.2221545644   -0.9951243924    1.0789235195
C       -0.1104441275   -0.8616526078    0.2803463136
C       -1.0389018787   -1.2300995556    2.4984534860
C       -0.9713647239    0.9367612681   -1.1265915363
C        1.2484661996   -0.0725843338   -1.5842642532
N       -3.1803249961   -1.1170623225    5.5962989636
N       -3.4373759998   -0.7181256001    2.8224385239
N        0.1101842391    0.0671361250   -0.6809431994
O        0.0340240608   -1.5380401805    3.0414772259
H       -5.2063464768   -0.6711310818    5.6940513118
H       -5.4350086890   -0.3177684001    3.2131710564
H       -1.1794244430   -1.5217895687    5.1854533535
H       -2.1751023866   -0.5662935848    0.7906926975
H        0.7931418688   -1.3869681371    0.5889954702
H       -1.5129793268    1.3172194480   -0.2570466768
H       -1.6812186875    0.4138596327   -1.7816653708
H       -0.5461490490    1.7801106023   -1.6760149126
H        0.9691373706   -0.5725282004   -2.5218645646
H        2.0303315805   -0.6586608875   -1.0967164600
H        1.6512037508    0.9162111674   -1.8240979613
24   
torsion grid (-120,)
C       -4.3341631626   -0.7003522678    4.9878174929
C       -4.4759204727   -0.6242492600    3.5986487957
C       -2.1131087537   -1.1109963769    4.7382704733
C       -2.2478061340   -1.0369395858    3.3405237598
C       -1.2278255854   -1.1769454760    1.0417771050
C       -0.1363085704   -1.0005078621    0.2132371740
C       -1.0210841188   -1.2459168378    2.4735250592
C       -0.9751032474    0.9563715717   -0.9823104303
C        1.2162683818   -0.0438931742   -1.5767863861
N       -3.1504552006   -0.9445085964    5.5666916456
N       -3.4380302694   -0.7891390592    2.7722514262
N        0.0891567727    0.0159717471   -0.6496485614
O        0.0699093788   -1.4290168551    3.0384351739
H       -5.1901051733   -0.5602661952    5.6456831231
H       -5.4457335064   -0.4246314597    3.1457708589
H       -1.1390070865   -1.3132939738    5.1729240963
H       -2.1910972556   -0.7689124740    0.7511240854
H        0.7775188886   -1.5403517134    0.4666100466
H       -1.5161242685    1.2234747196   -0.0714682496
H       -1.6874628377    0.5383315329   -1.7055472951
H       -0.5296545007    1.8568392722   -1.4122422136
H        0.9166395052   -0.4279925294   -2.5610048017
H        1.9892834886   -0.6971925164   -1.1668022646
H        1.6357487008    0.9582013324   -1.7065718015
24   
torsion grid (-105,)
C       -4.3286804107   -0.6559440871    4.9224797199
C       -4.4796381035   -0.7040309813    3.5331574981
C       -2.0896857977   -0.9679760176    4.6902833288
C       -2.2333517247   -1.0197693518    3.2921608787
C       -1.2183905574   -1.3388696769    1.0146082260
C       -0.1552189152   -1.1293629162    0.1424301006
C       -0.9971781333   -1.2357050371    2.4386468723
C       -0.9564187267    0.9754995481   -0.8001376437
C        1.1707175630   -0.0355637939   -1.5882605391
N       -3.1315625873   -0.7879491275    5.5101337668
N       -3.4370240248   -0.8833711546    2.7155806205
N        0.0728800331   -0.0445770693   -0.6234620939
O        0.1071007155   -1.2717909360    3.0092311006
H       -5.1883415642   -0.5062862781    5.5733468536
H       -5.4601491686   -0.5936496680    3.0727324674
H       -1.1044120666   -1.0809370633    5.1319399533
H       -2.1861081047   -0.9432469554    0.7121311356
H        0.7581205149   -1.7069266952    0.3052738578
H       -1.4592428694    1.1424784002    0.1550529104
H       -1.7051820737    0.6825758156   -1.5466942458
H       -0.4799764707    1.9025471224   -1.1280337548
H        0.8263111833   -0.2910299613   -2.5985535231
H        1.9283129915   -0.7594651534   -1.2812436795
H        1.6229463646    0.9600112293   -1.6138913264
24   
torsion grid (-90,)
C       -4.2357244304   -1.2117154442    5.1675211427
C       -4.4336459151   -1.6205280207    3.8448603897
C       -2.2550307849   -0.2665416872    4.5772290393
C       -2.4460473276   -0.6764616903    3.2456737269
C       -1.6524068261   -0.7380596188    0.8556714016
C       -0.5977993433   -0.9828358932   -0.0419927278
C       -1.3905071815   -0.3283086209    2.2149049234
C       -0.2418515128    1.3447606202   -0.5806663443
C        1.0681708492   -0.4321350207   -1.7406796857
N       -3.1437801049   -0.5310827624    5.5420723468
N       -3.5426655577   -1.3587036622    2.8833187333
N       -0.0331895590   -0.0787168896   -0.8505832931
O       -0.3750944589    0.2845952710    2.6025119761
H       -4.9697414972   -1.4385093228    5.9388501541
H       -5.3273275462   -2.1724834112    3.5580058615
H       -1.3601162257    0.2873546702    4.8434412089
H       -2.3474739125   -1.5802628680    0.8636345630
H       -0.4454153594   -2.0038459861   -0.4076493321
H       -1.2766538932    1.4726159827   -0.2498192097
H       -0.0577923635    1.9121665725   -1.4963381522
H        0.4163424690    1.6967555957    0.2193543625
H        0.9487986837    0.0965327168   -2.6909423542
H        1.0568251777   -1.5082225395   -1.9277486779
H        2.0364781542   -0.1579397126   -1.3059893407
24   
torsion grid (-75,)
C       -4.1743818495   -1.1022079605    5.1800685751
C       -4.3951407607   -1.5925457000    3.8888992755
C       -2.2173922961   -0.1738607486    4.4928485112
C       -2.4319786613   -0.6643021964    3.1926701390
C       -1.6704116896   -0.8971672929    0.8017768203
C       -0.6427461809   -1.0746840798   -0.1276013324
C       -1.4059913499   -0.3667820944    2.1185810979
C       -0.2597507434    1.2973307322   -0.4677940727
C        1.0986610411   -0.3933567314   -1.6951199001
N       -3.0831093195   -0.3890698661    5.4903300266
N       -3.5279377185   -1.3788942191    2.8945340297
N       -0.0356841616   -0.1021282314   -0.8251404842
O       -0.4006946008    0.2990791085    2.4385265001
H       -4.8899375416   -1.2892302097    5.9788856404
H       -5.2879133226   -2.1703704557    3.6551128195
H       -1.3233165489    0.4034755381    4.7072637924
H       -2.3649098223   -1.7345095885    0.8388083123
H       -0.5079785353   -2.0582781245   -0.5857141306
H       -1.3198049411    1.4180810385   -0.2257527459
H        0.0061713339    1.9265205738   -1.3211099771
H        0.3196212780    1.5829311441    0.4150766889
H        1.0255605363    0.2097712966   -2.6051560908
H        1.0896198265   -1.4508799815   -1.9689499797
H        2.0506997286   -0.1662776370   -1.2004646713
24   
torsion grid (-60,)
C       -4.1650647285   -1.0323799598    5.1559254173
C       -4.3765178365   -1.5850616049    3.8885428990
C       -2.2163821274   -0.1170465673    4.4295048468
C       -2.4222605257   -0.6689679849    3.1528203474
C       -1.6434153363   -1.0349698243    0.7869599407
C       -0.6717117117   -1.1362256143   -0.2011566468
C       -1.3992334924   -0.4120432489    2.0656809020
C       -0.2464065926    1.2612289659   -0.4039743728
C        1.0980507497   -0.3837614240   -1.6992678109
N       -3.0821271832   -0.2938419825    5.4344159615
N       -3.5101480229   -1.4083325372    2.8862252651
N       -0.0237050839   -0.1245103641   -0.8044246510
O       -0.4049887634    0.2834435122    2.3530749850
H       -4.8809233199   -1.1890687180    5.9609657537
H       -5.2623229932   -2.1830512434    3.6804274195
H       -1.3285307778    0.4782427696    4.6194165882
H       -2.3375833373   -1.8696288295    0.8243927125
H       -0.5676436936   -2.0841988235   -0.7334810967
H       -1.3070946492    1.3831606378   -0.1673207438
H        0.0238763491    1.9127245640   -1.2396509146
H        0.3269977573    1.5224362754    0.4896683997
H        1.0247897185    0.2605566699   -2.5811207033
H        1.0801591144   -1.4275175238   -2.0211154795
H        2.0563811915   -0.1883104813   -1.2028035591
24   
torsion grid (-45,)
C       -4.1809685100   -0.9829075015    5.1384262554
C       -4.3558589896   -1.6026122265    3.8967091126
C       -2.2418633458   -0.0557146418    4.4016428095
C       -2.4118326876   -0.6730090070    3.1498762442
C       -1.5839473305   -1.1410991647    0.8205547612
C       -0.6917626758   -1.1569319544   -0.2359214297
C       -1.3770800329   -0.4434856900    2.0676110320
C       -0.2200742301    1.2527492007   -0.3317022701
C        1.0699205887   -0.3584837036   -1.7161856571
N       -3.1216844337   -0.2045188773    5.3987730013
N       -3.4769702739   -1.4512664846    2.9012290143
N       -0.0133507683   -0.1221980273   -0.7701484125
O       -0.4008404241    0.2809054896    2.3405304236
H       -4.9076988080   -1.1174223718    5.9376946132
H       -5.2223639496   -2.2330468772    3.7037046957
H       -1.3712296475    0.5683994049    4.5784561868
H       -2.2822645632   -1.9698043440    0.8669726548
H       -0.6234265064   -2.0644990079   -0.8379617740
H       -1.2728882694    1.3798286313   -0.0672662493
H        0.0301535784    1.9201955867   -1.1616915422
H        0.3770449386    1.4975280388    0.5506012111
H        0.9873376383    0.3327151962   -2.5613717404
H        1.0177956433   -1.3829832078   -2.0918242629
H        2.0488705608   -0.2133095551   -1.2425173844
24   
torsion grid (-30,)
C       -4.2200099810   -0.9402358883    5.1391476840
C       -4.3374581105   -1.6207018808    3.9227346794
C       -2.2933540787    0.0215454221    4.4142177057
C       -2.4065240843   -0.6553033632    3.1870327197
C       -1.4985360870   -1.1997778471    0.9056892178
C       -0.6867213225   -1.1501984629   -0.2079794753
C       -1.3497785463   -0.4371437754    2.1234426095
C       -0.1216174707    1.2522950554   -0.2459048915
C        1.0489764228   -0.3616131632   -1.7228820814
N       -3.1960656436   -0.1137556120    5.3925776093
N       -3.4370377140   -1.4811101563    2.9449689403
N        0.0381600794   -0.1236504218   -0.7009457546
O       -0.4037185355    0.3257628462    2.3928740884
H       -4.9646712780   -1.0644450409    5.9234298130
H       -5.1753309853   -2.2903264248    3.7354589885
H       -1.4492311080    0.6820818067    4.5872992540
H       -2.1972078087   -2.0274412868    0.9479833771
H       -0.6693201971   -2.0307325327   -0.8511272286
H       -1.1611911275    1.4111601417    0.0483423139
H        0.1213194150    1.9185292865   -1.0795566515
H        0.5081713741    1.4790072618    0.6177424577
H        0.9081542147    0.3232993176   -2.5666071664
H        0.9774646743   -1.3888088408   -2.0867180125
H        2.0579287854   -0.2107920186   -1.3190046629
24   
torsion grid (-15,)
C       -4.2728250733   -0.9719190859    5.1083395783
C       -4.3176060153   -1.7098505799    3.9210353045
C       -2.3856317142    0.0688195041    4.3893156696
C       -2.4258827585   -0.6652837934    3.1906767092
C       -1.4375824195   -1.2360629482    0.9483088289
C       -0.7074217472   -1.1301510374   -0.2149246490
C       -1.3507528340   -0.4327928334    2.1469953765
C        0.0134077774    1.2398585280   -0.2053735628
C        0.9677495096   -0.3824344942   -1.8155828436
N       -3.3057916040   -0.0762078979    5.3497426561
N       -3.4010312008   -1.5587911610    2.9600695545
N        0.0783114980   -0.1372383063   -0.6875253764
O       -0.4452090402    0.3741733813    2.4222817561
H       -5.0301352070   -1.1057591814    5.8787838454
H       -5.1098655843   -2.4351861033    3.7430715357
H       -1.5853212528    0.7835657591    4.5547411901
H       -2.1418519469   -2.0589992191    0.9830523894
H       -0.7603886165   -1.9830462550   -0.8914230116
H       -1.0068888302    1.4678955186    0.1073318158
H        0.2878236102    1.9026802254   -1.0317727528
H        0.6717050153    1.4104347178    0.6489404454
H        0.7173556733    0.2706462916   -2.6607505451
H        0.8891374365   -1.4224640703   -2.1374050897
H        2.0098736273   -0.1933763995   -1.5307590591
24   
torsion grid (0,)
C       -4.2189393197   -1.3156797389    5.1107449455
C       -4.0620345354   -2.1129859153    3.9724464616
C       -2.7499866153    0.1923017452    4.2547199682
C       -2.5861128141   -0.6034123525    3.1065199191
C       -1.5270765202   -0.9974828800    0.8717007040
C       -0.7970775948   -0.9363285597   -0.3019620575
C       -1.6409918621   -0.1278210400    2.0157451206
C        0.5571591184    1.1806328750   -0.2779877556
C        0.6591228939   -0.3760397009   -2.1617272447
N       -3.5629318792   -0.1568674281    5.2586254427
N       -3.2496688311   -1.7626045553    2.9710571148
N        0.0823792680   -0.0751386445   -0.8552305071
O       -1.0623579083    0.9572858861    2.2142471737
H       -4.8852180064   -1.6168156222    5.9172412044
H       -4.6030686544   -3.0520788082    3.8684705694
H       -2.2038515495    1.1260826837    4.3438422359
H       -2.1399982544   -1.8879002516    0.9404972534
H       -0.9641702047   -1.7913438219   -0.9543112435
H        0.3135473351    2.0078524747   -0.9567887524
H        1.6482044488    1.1400894212   -0.1661177474
H        0.0938876850    1.3510318156    0.6908507618
H        0.4197384845    0.4215685967   -2.8758670002
H        0.2707830165   -1.3188845264   -2.5493233327
H        1.7512398607   -0.4503202727   -2.0880513844
24   
torsion grid (15,)
C       -3.9676530457   -1.1737370205    5.2887193349
C       -3.7109538828   -2.1066239818    4.2787650539
C       -2.9739069398    0.4464435817    4.0429095839
C       -2.7079480853   -0.4864948393    3.0250312972
C       -1.7574563118   -1.0296606661    0.7596179516
C       -1.0039570286   -0.9402340957   -0.3901530120
C       -1.9841787999   -0.0257730797    1.7746074163
C        0.6228547396    0.8469358627    0.1505101164
C        0.3802893633   -0.0067428013   -2.1626909426
N       -3.5992011707    0.1098628976    5.1769587681
N       -3.0803597198   -1.7703556331    3.1493651320
N       -0.0712110883   -0.0422867429   -0.7774566312
O       -1.6998901716    1.1817447356    1.6855294354
H       -4.4795934910   -1.4665660626    6.2037174818
H       -4.0195056416   -3.1452805944    4.3856674898
H       -2.6658730023    1.4800622738    3.9183549164
H       -2.2856568568   -1.9657058399    0.8980931871
H       -1.1688987026   -1.7221977135   -1.1312385481
H        1.6223442200    1.0425973696   -0.2498822320
H        0.7196135905    0.3564499332    1.1203813003
H        0.0873458836    1.7863774232    0.3017633260
H        0.1785311943    0.9753235616   -2.6074604533
H       -0.1493284983   -0.7588153199   -2.7503206609
H        1.4581834789   -0.1998570676   -2.2278567328
24   
torsion grid (30,)
C       -3.9777140880   -1.1478499809    5.2457732176
C       -3.6351394255   -2.1186019529    4.2987796299
C       -3.0531589396    0.4590403571    3.9319521630
C       -2.7011909050   -0.5114217484    2.9774081627
C       -1.6850490696   -1.1161758969    0.7567959217
C       -1.0075445767   -0.9746173987   -0.4359367054
C       -1.9688575238   -0.0803337177    1.7229010420
C        0.6908332493    0.6969655971    0.2057376732
C        0.3544273668    0.0605326799   -2.1692085499
N       -3.6884438597    0.1484812627    5.0679136667
N       -2.9970292432   -1.8072651669    3.1664723985
N       -0.0246743361   -0.1127598528   -0.7730687120
O       -1.7218713887    1.1316717957    1.5831648556
H       -4.4952452399   -1.4204765606    6.1638641035
H       -3.8807755347   -3.1671456072    4.4591486863
H       -2.8055274866    1.5012242321    3.7548572131
H       -2.2221765394   -2.0480594130    0.8910425650
H       -1.2182183359   -1.7053078757   -1.2175587217
H        1.7030301205    0.8737464018   -0.1710657639
H        0.7502187245    0.1466216071    1.1471920889
H        0.1882060405    1.6463758682    0.4053317758
H        0.0576716832    1.0510217746   -2.5362480069
H       -0.1385791317   -0.6935521737   -2.7863809524
H        1.4392778118   -0.0408175743   -2.2860244360
24   
torsion grid (45,)
C       -4.0050229316   -1.0984636858    5.2442746110
C       -3.6055866968   -2.0882368145    4.3402310635
C       -3.0972040015    0.4933128473    3.9005106445
C       -2.6901293651   -0.4961581876    2.9883419668
C       -1.5889246728   -1.1393010771    0.8193249184
C       -1.0172929415   -0.9482987726   -0.4253715014
C       -1.9398233500   -0.0829905135    1.7389335672
C        0.7458402457    0.6295275938    0.2375716334
C        0.3156438456    0.1260091269   -2.1579797984
N       -3.7526858322    0.2000142208    5.0296174609
N       -2.9492312886   -1.7938637514    3.2138093488
N        0.0032157839   -0.1335390474   -0.7582622315
O       -1.7245598582    1.1317599423    1.5648614638
H       -4.5386559196   -1.3572981015    6.1571381760
H       -3.8206366757   -3.1385123033    4.5304715499
H       -2.8765291609    1.5363062918    3.6949123358
H       -2.1310048208   -2.0686544059    0.9571259676
H       -1.2889303031   -1.6367485502   -1.2272579240
H        1.7545502691    0.8075985954   -0.1468697107
H        0.8051612455    0.0397052388    1.1557578617
H        0.2555499448    1.5758578224    0.4804379872
H       -0.0258113900    1.1233208814   -2.4621802373
H       -0.1771977740   -0.6147344272   -2.7918604917
H        1.3970825867    0.0654861332   -2.3185534397
24   
torsion grid (60,)
C       -4.0535731589   -1.0990595007    5.2303499047
C       -3.5895062394   -2.0909722691    4.3602321635
C       -3.1619582273    0.4985568317    3.8828369260
C       -2.6916271461   -0.4927133103    3.0035316334
C       -1.4873718160   -1.1348552368    0.8876280494
C       -1.0306999283   -0.9030803273   -0.4034629157
C       -1.9192643278   -0.0760584270    1.7687755258
C        0.7998510068    0.5868404526    0.2283234640
C        0.2846427452    0.1477790295   -2.1662819102
N       -3.8421842211    0.2034333317    4.9967538873
N       -2.9106361624   -1.7941355249    3.2478064383
N        0.0270637635   -0.1544699666   -0.7631783185
O       -1.7374509999    1.1427872668    1.5786270774
H       -4.6066192848   -1.3595405894    6.1311095049
H       -3.7711199260   -3.1446607100    4.5659295265
H       -2.9711613278    1.5445115741    3.6631399558
H       -2.0307692399   -2.0652794208    1.0247008920
H       -1.3772473185   -1.5553301711   -1.2079791372
H        1.7990658571    0.7713266917   -0.1758358478
H        0.8729493162   -0.0243459175    1.1322791641
H        0.3142604061    1.5280930139    0.5004437177
H       -0.0454356220    1.1619554186   -2.4225038532
H       -0.2501785980   -0.5624521555   -2.8011398425
H        1.3569138092    0.0683368575   -2.3709780779
24   
torsion grid (75,)
C       -4.1183430572   -1.1403479327    5.2130490211
C       -3.5839437861   -2.1153251811    4.3644609341
C       -3.2494174396    0.4886427593    3.8885070173
C       -2.7096651354   -0.4854120666    3.0300002664
C       -1.3889939548   -1.0804455964    0.9687666199
C       -1.0378568561   -0.8233027199   -0.3585045965
C       -1.9153743649   -0.0392283267    1.8196608324
C        0.8745425853    0.5626051016    0.1991489831
C        0.2714163586    0.1353373313   -2.1807142637
N       -3.9542417605    0.1690357989    4.9802088963
N       -2.8824775376   -1.7937623929    3.2731020221
N        0.0577880120   -0.1661548001   -0.7693854380
O       -1.7784000253    1.1859148232    1.6283140931
H       -4.6903895152   -1.4205516153    6.0958513143
H       -3.7275571813   -3.1749928491    4.5695770465
H       -3.0936064689    1.5406866909    3.6704871974
H       -1.9323723692   -2.0149816471    1.0958822210
H       -1.4699604235   -1.4422873586   -1.1494208672
H        1.8684803769    0.7224826516   -0.2266167317
H        0.9458672896   -0.0456132437    1.1057253536
H        0.4157271882    1.5173851573    0.4721971618
H       -0.0212644107    1.1651129266   -2.4185225216
H       -0.3191662053   -0.5475778797   -2.7957402817
H        1.3302862637    0.0080752664   -2.4254100599
24   
torsion grid (90,)
C       -4.1825409369   -1.2469177092    5.1993122334
C       -3.5718521450   -2.1771237726    4.3522601550
C       -3.3664645592    0.4480596514    3.9243550358
C       -2.7514841162   -0.4813129992    3.0666463895
C       -1.3085936173   -0.9621517406    1.0583172794
C       -1.0323483653   -0.7064836132   -0.2967188112
C       -1.9521137816    0.0311661262    1.8850030350
C        0.9820704725    0.5536944489    0.1379697203
C        0.2769193074    0.0733153370   -2.2051677504
N       -4.0832060310    0.0730601400    4.9903786818
N       -2.8596335046   -1.8002957092    3.2856156182
N        0.0921035960   -0.1630569681   -0.7768246995
O       -1.9010179466    1.2648236728    1.7051490301
H       -4.7635517524   -1.5720032571    6.0606474695
H       -3.6626476009   -3.2462581764    4.5375338463
H       -3.2606408012    1.5102395343    3.7265970544
H       -1.8354535449   -1.9125845582    1.1657927304
H       -1.5559741692   -1.2926973302   -1.0593130457
H        1.9839907271    0.5927466907   -0.2967225634
H        0.9946668736    0.0080586043    1.0859528735
H        0.6167103607    1.5662769699    0.3337865861
H        0.0558378100    1.1140172006   -2.4694141003
H       -0.3849057560   -0.5838318176   -2.7736944788
H        1.3142960856   -0.1438153326   -2.4762068259
24   
torsion grid (105,)
C       -3.6063985986   -1.1419392185    5.3687679878
C       -2.6900862544   -1.8698285432    4.6033367184
C       -3.9759732919    0.2445345509    3.6066548421
C       -3.0574583838   -0.4836241447    2.8293312683
C       -1.8982454794   -0.8740695049    0.6325617401
C       -1.3021438199   -0.3520243368   -0.5107162452
C       -2.8067539725   -0.0504126147    1.3965503686
C        0.9729587002   -0.2380251688    0.3681184925
C        0.4801854237    0.4626077341   -1.9630298526
N       -4.2558306206   -0.0791222331    4.8743333311
N       -2.4114114530   -1.5442286765    3.3368421543
N       -0.0270937666    0.0595036402   -0.6529548251
O       -3.3621963167    0.9871883454    0.9951144191
H       -3.8191288662   -1.4195499426    6.3996530972
H       -2.1704327154   -2.7302778338    5.0218600255
H       -4.4855453655    1.0991466898    3.1724487235
H       -1.2778910668   -1.5080168626    1.2632342943
H       -1.9542785636    0.0869740548   -1.2698450500
H        1.3593403534   -1.2613690420    0.2828340738
H        0.5213941277   -0.1140425102    1.3549413082
H        1.8060508101    0.4604224077    0.2582974483
H        1.1639659093    1.3077986323   -1.8428896456
H       -0.3548792719    0.7713927153   -2.5951410927
H        1.0167891948   -0.3553533599   -2.4605899815
24   
torsion grid (120,)
C       -3.6886266319   -1.1501605672    5.3787946836
C       -2.6797570274   -1.8021436533    4.6626357293
C       -4.1176213999    0.1621651115    3.5739299552
C       -3.1053026685   -0.4894362360    2.8472964927
C       -1.7983627787   -0.7910672046    0.7179546386
C       -1.2554033605   -0.2463726920   -0.4298883248
C       -2.8383423201   -0.0645586588    1.4161163263
C        1.0837160341   -0.3489407809    0.2614544349
C        0.4676194548    0.4940894290   -1.9892423133
N       -4.4147505269   -0.1625354628    4.8374196805
N       -2.3827129520   -1.4755459343    3.4007534291
N        0.0357580920    0.0866061794   -0.6547462605
O       -3.4937934124    0.8837660569    0.9536796589
H       -3.9140482721   -1.4278584941    6.4069735363
H       -2.0993732429   -2.6026475695    5.1185007765
H       -4.6884472483    0.9565213536    3.1029524851
H       -1.1808838711   -1.4110116916    1.3606620584
H       -1.9387492344    0.2536709006   -1.1180405879
H        1.3591650812   -1.4004446500    0.1071627229
H        0.7367887902   -0.2245414652    1.2899625922
H        1.9702733797    0.2703525810    0.1045721723
H        1.2288524439    1.2753585344   -1.9039978396
H       -0.3855650275    0.8947040380   -2.5405443740
H        0.8903975417   -0.3456058178   -2.5569110116
24   
torsion grid (135,)
C       -3.7710133100   -1.1782194053    5.3924873186
C       -2.6858693808   -1.7554363973    4.7251340618
C       -4.2234693574    0.0888197677    3.5612234417
C       -3.1344749108   -0.4873176351    2.8839206775
C       -1.6902471901   -0.6684365485    0.8245129824
C       -1.2055938956   -0.1196954556   -0.3397045948
C       -2.8377493929   -0.0525357934    1.4631496781
C        1.1658395613   -0.4083634901    0.1627532556
C        0.4399123622    0.5017076849   -2.0278223254
N       -4.5469982962   -0.2512299662    4.8141501083
N       -2.3619159103   -1.4128383557    3.4742496614
N        0.0877957605    0.1209706672   -0.6632454087
O       -3.5696125462    0.8072253601    0.9473459987
H       -4.0181024269   -1.4676228089    6.4124081008
H       -2.0664988150   -2.5072960298    5.2114632535
H       -4.8328224343    0.8350793812    3.0605377624
H       -1.0573026817   -1.2680546800    1.4686322971
H       -1.9159195520    0.4018427898   -0.9809145255
H        1.3178942084   -1.4849381664    0.0068232484
H        0.9332020629   -0.2371191806    1.2166771329
H        2.0930193486    0.1140962279   -0.0848303638
H        1.2690240715    1.2155851525   -2.0081127634
H       -0.4187547250    0.9776839662   -2.5059909535
H        0.7405178801   -0.3658399980   -2.6312011772
24   
torsion grid (150,)
C       -3.8552247343   -1.2404633997    5.3783977311
C       -2.6900459920   -1.7169320186    4.7687761510
C       -4.3279869624   -0.0179113493    3.5225668351
C       -3.1585698893   -0.4924193683    2.9032349921
C       -1.5919907965   -0.5338278837    0.9257405745
C       -1.1515391994   -0.0024913009   -0.2593364665
C       -2.8262831928   -0.0314188501    1.4999838305
C        1.2145011127   -0.4903462981    0.0754577822
C        0.4134809164    0.4728950317   -2.0676876687
N       -4.6820329738   -0.3868649176    4.7589064833
N       -2.3360895165   -1.3455168240    3.5343655295
N        0.1306335430    0.1237472625   -0.6797410010
O       -3.6099671636    0.7468922744    0.9342983659
H       -4.1263330155   -1.5522765879    6.3855201210
H       -2.0308229323   -2.4103206167    5.2884498262
H       -4.9760087547    0.6713221669    2.9896093386
H       -0.9467011019   -1.1221945354    1.5662751471
H       -1.8807458576    0.5294623745   -0.8685051755
H        1.2360128206   -1.5820655386   -0.0463059068
H        1.0981319392   -0.2601274247    1.1376471662
H        2.1671247450   -0.0816385237   -0.2695017292
H        1.2935865608    1.1218330762   -2.1149605470
H       -0.4378163732    1.0111966577   -2.4893631166
H        0.6033565708   -0.4173106257   -2.6834432591
24   
torsion grid (165,)
C       -4.4199627136   -1.0053859994    5.0701325235
C       -4.4103087494   -0.3199489030    3.8508779533
C       -2.2994037204   -1.7238173622    4.6839462906
C       -2.2819704492   -1.0368481655    3.4576994179
C       -1.0817603876   -0.3640805753    1.3403991392
C       -0.0069655737   -0.4473401044    0.4962871412
C       -1.0405883592   -1.0945410535    2.5940340057
C       -1.0991842523    0.5747578656   -1.4264799957
C        1.3236644534    0.0211062099   -1.4944651305
N       -3.3636442781   -1.7124071348    5.4947348328
N       -3.3465067973   -0.3321400692    3.0415509983
N        0.0416193049   -0.0866184097   -0.8087989634
O       -0.0711627215   -1.7549086387    2.9987571521
H       -5.2959769869   -0.9841782857    5.7160303503
H       -5.2788040104    0.2489447034    3.5230275129
H       -1.4250237262   -2.2867194386    4.9964911050
H       -2.0044807307    0.1336815450    1.0718279517
H        0.8900569044   -0.9329420805    0.8755560401
H       -1.2230159306    1.6037159766   -1.0613231485
H       -2.0140519252    0.0166303543   -1.2094196697
H       -0.9566857110    0.6021464571   -2.5090092190
H        1.2273108797   -0.3320505914   -2.5261585287
H        2.0643097662   -0.5983108035   -0.9847966529
H        1.6900495490    1.0571092590   -1.5139280290
24   
torsion grid (180,)
C       -4.4233977485   -1.0487805321    5.0536829182
C       -4.4490533412   -0.4311399424    3.7990047688
C       -2.2554348018   -1.6405425874    4.7186198403
C       -2.2738467972   -1.0224339424    3.4562941985
C       -1.1081748898   -0.3966034029    1.3068946954
C       -0.0100437325   -0.4225273192    0.4893269696
C       -1.0238910829   -1.0417881807    2.6034553793
C       -1.0434344782    0.7806141546   -1.3573186463
C        1.2483695220   -0.1709880866   -1.5927051462
N       -3.3253541124   -1.6580696235    5.5218211540
N       -3.3797433104   -0.4147951280    2.9970382594
N        0.1003436587    0.1199368133   -0.7447934030
O       -0.0127959551   -1.6047544678    3.0521884645
H       -5.3045835140   -1.0522643773    5.6928591852
H       -5.3509468271    0.0591625991    3.4361927643
H       -1.3475155334   -2.1242126779    5.0662251206
H       -2.0479430265    0.0578252830    1.0219324690
H        0.8777857689   -0.9305163328    0.8596137782
H       -1.4534289641    1.5338581529   -0.6777316183
H       -1.8388995453    0.0635735261   -1.6014329057
H       -0.7250852613    1.2783093754   -2.2753800366
H        0.9915335231   -0.8863649253   -2.3859408849
H        2.0508013135   -0.5989021312   -0.9892452369
H        1.6194412134    0.7472063557   -2.0608577245
