
  -OEChem-05262117483D

 33 34  0     1  0  0  0  0  0999 V2000
   -1.7178    0.0774   -1.5590 C   0  0  0  0  0  0  0  0  0  0  0  0
   -2.1771    1.0293   -0.6397 C   0  0  0  0  0  0  0  0  0  0  0  0
   -0.6617   -0.7832   -1.2258 C   0  0  0  0  0  0  0  0  0  0  0  0
   -1.5858    1.1329    0.6274 C   0  0  0  0  0  0  0  0  0  0  0  0
   -0.0716   -0.6756    0.0326 C   0  0  0  0  0  0  0  0  0  0  0  0
   -0.5344    0.2771    0.9487 C   0  0  0  0  0  0  0  0  0  0  0  0
    0.5876    1.6050    4.2219 C   0  0  0  0  0  0  0  0  0  0  0  0
    1.0639   -1.4728    0.6400 C   0  0  0  0  0  0  0  0  0  0  0  0
    0.2551    0.1824    2.2375 C   0  0  1  0  0  0  0  0  0  0  0  0
    1.5546   -0.5748    1.8079 C   0  0  2  0  0  0  0  0  0  0  0  0
    2.6613    0.3796    1.3479 C   0  0  0  0  0  0  0  0  0  0  0  0
    1.2004    5.2702    4.0410 C   0  0  0  0  0  0  0  0  0  0  0  0
    0.8467    3.0270    4.7099 C   0  0  0  0  0  0  0  0  0  0  0  0
    0.4536    1.4690    2.8791 N   0  0  0  0  0  0  0  0  0  0  0  0
    0.5028    0.6819    5.0332 O   0  0  0  0  0  0  0  0  0  0  0  0
    0.9649    3.9328    3.6222 O   0  0  0  0  0  0  0  0  0  0  0  0
   -2.1805    0.0099   -2.5404 H   0  0  0  0  0  0  0  0  0  0  0  0
   -2.9947    1.6919   -0.9121 H   0  0  0  0  0  0  0  0  0  0  0  0
   -0.3048   -1.5163   -1.9461 H   0  0  0  0  0  0  0  0  0  0  0  0
   -1.9396    1.8695    1.3451 H   0  0  0  0  0  0  0  0  0  0  0  0
    0.6868   -2.4308    1.0218 H   0  0  0  0  0  0  0  0  0  0  0  0
    1.8594   -1.7027   -0.0767 H   0  0  0  0  0  0  0  0  0  0  0  0
   -0.2835   -0.4371    2.9629 H   0  0  0  0  0  0  0  0  0  0  0  0
    1.9256   -1.1739    2.6443 H   0  0  0  0  0  0  0  0  0  0  0  0
    2.3319    0.9959    0.5028 H   0  0  0  0  0  0  0  0  0  0  0  0
    3.5403   -0.1871    1.0238 H   0  0  0  0  0  0  0  0  0  0  0  0
    2.9730    1.0491    2.1549 H   0  0  0  0  0  0  0  0  0  0  0  0
    1.2765    5.8806    3.1389 H   0  0  0  0  0  0  0  0  0  0  0  0
    2.1368    5.3489    4.6117 H   0  0  0  0  0  0  0  0  0  0  0  0
    0.3736    5.6434    4.6624 H   0  0  0  0  0  0  0  0  0  0  0  0
    0.0163    3.3102    5.3726 H   0  0  0  0  0  0  0  0  0  0  0  0
    1.7652    3.0106    5.3133 H   0  0  0  0  0  0  0  0  0  0  0  0
    0.6081    2.2954    2.3128 H   0  0  0  0  0  0  0  0  0  0  0  0
  1  2  1  0  0  0  0
  1  3  2  0  0  0  0
  1 17  1  0  0  0  0
  2  4  2  0  0  0  0
  2 18  1  0  0  0  0
  3  5  1  0  0  0  0
  3 19  1  0  0  0  0
  4  6  1  0  0  0  0
  4 20  1  0  0  0  0
  5  6  2  0  0  0  0
  5  8  1  0  0  0  0
  6  9  1  0  0  0  0
  7 13  1  0  0  0  0
  7 14  1  0  0  0  0
  7 15  2  0  0  0  0
  8 10  1  0  0  0  0
  8 21  1  0  0  0  0
  8 22  1  0  0  0  0
  9 10  1  0  0  0  0
  9 14  1  0  0  0  0
  9 23  1  0  0  0  0
 10 11  1  0  0  0  0
 10 24  1  0  0  0  0
 11 25  1  0  0  0  0
 11 26  1  0  0  0  0
 11 27  1  0  0  0  0
 12 16  1  0  0  0  0
 12 28  1  0  0  0  0
 12 29  1  0  0  0  0
 12 30  1  0  0  0  0
 13 16  1  0  0  0  0
 13 31  1  0  0  0  0
 13 32  1  0  0  0  0
 14 33  1  0  0  0  0
M  END
$$$$
