25
0 1 C7H11N3O2S2
C                    -4.893814582660     3.468874013906     1.287544140509
C                    -2.889741903037     4.657878684864     1.032826118931
C                    -6.202409800076     2.748605938197     1.153441184220
C                     0.731360519062     0.821420770496    -0.439261747413
C                     0.873195706918     2.135750903598     0.336163712531
C                    -0.332043078384     3.064510424016     0.130464862965
C                    -0.192694695329     4.357815827944     0.923805919007
N                    -4.256630853347     3.616723390721     2.423329787479
N                    -3.089589724853     4.316318528974     2.276888429511
N                    -6.681859995422     2.259820575304     2.326400112045
O                    -6.749702387117     2.635341615332     0.060150668644
O                    -1.580712903187     5.651437944434    -1.045677520874
S                    -4.116960518877     4.174579730747    -0.098010255298
S                    -1.459750650022     5.631883751103     0.464985395589
H                     0.634661644268     1.006942172395    -1.514687769534
H                     1.602974472963     0.176562627518    -0.287015902830
H                    -0.156336696636     0.265936657820    -0.116442688195
H                     0.994636754331     1.921233146481     1.405617858702
H                     1.787119146263     2.653082445365     0.017664115212
H                    -0.438372914911     3.307945334399    -0.932343965755
H                    -1.247976644991     2.544867166312     0.434001043300
H                    -0.294516233068     4.219609721524     2.004794318585
H                     0.758878982875     4.859630422782     0.717253062092
H                    -7.567677372580     1.771568802960     2.323866051720
H                    -6.175950727872     2.409180673679     3.190896838842
