43
0 1 C13H23N5O2
C                     4.042171591478     3.667871326233    -7.803412098368
C                     2.759755871363     4.568071337802    -6.168371798943
C                     2.161436705020     2.284239097850    -5.199257155647
C                    -0.387258576860     1.973810977025    -0.483685899076
C                    -1.303312727077     2.270178631817    -1.679876838889
C                     0.860683433482     1.192835088446    -0.919266266470
C                    -0.550102592114     2.994634197921    -2.804793863299
C                     1.615226116039     1.924103715886    -2.038156502211
C                     0.692814806528     2.207053611533    -3.234837460121
C                     4.906116825661     3.577688152225    -9.013972855920
C                     5.342899637139     6.727346978346    -5.826402562611
C                     5.280650870815     8.075483708679    -7.973616312443
C                     5.165828957164     6.687254856541    -7.343702366732
N                     3.591673041169     2.643143518371    -7.145809087403
N                     3.573201136945     4.864323489084    -7.265672054290
N                     2.808243733580     3.176845363529    -6.129903610870
N                     1.388806020430     2.933412897944    -4.296322186916
N                     3.817127600039     6.173974610831    -7.677297236119
O                     2.173222804445     5.348467316951    -5.423831121304
O                     2.327203291924     1.078801574755    -5.278755135792
H                    -0.937490494593     1.416039892739     0.283201291865
H                    -0.077456626137     2.921898007132    -0.022465001371
H                    -1.707406568885     1.325527448795    -2.068457993643
H                    -2.163359174076     2.871292504720    -1.363131294687
H                     1.526640782035     1.028987033520    -0.064320563897
H                     0.560551122054     0.198334666040    -1.276683265103
H                    -1.203956541294     3.150463217816    -3.670220036948
H                    -0.240682278703     3.989525343612    -2.453376781716
H                     2.003881763069     2.880174447862    -1.661209419560
H                     2.472498272133     1.335300960285    -2.379295528293
H                     0.379241991919     1.248681186237    -3.661267972534
H                     4.444737629885     4.082612499275    -9.869836739163
H                     5.042959051906     2.524398470093    -9.262430330088
H                     5.887202208894     4.031456911860    -8.844446279723
H                     4.562124767107     7.340725141660    -5.368564811233
H                     5.286201172448     5.726219997820    -5.389663371211
H                     6.323563885272     7.144841746170    -5.577248299643
H                     4.520582482782     8.745571391196    -7.560501486182
H                     5.151736396533     8.036788270745    -9.062143576944
H                     6.268005273584     8.500433652050    -7.772274845616
H                     5.949496817840     6.041763648282    -7.772045325585
H                     1.376943915283     3.951982252556    -4.314430001345
H                     3.624698467002     6.244001954062    -8.674240594535
