
  -OEChem-05262117483D

 50 50  0     1  0  0  0  0  0999 V2000
   -5.5622   -1.2167    1.9569 C   0  0  0  0  0  0  0  0  0  0  0  0
   -5.9425   -2.6554   -0.5315 C   0  0  0  0  0  0  0  0  0  0  0  0
   -6.0119   -0.3560    3.1223 C   0  0  0  0  0  0  0  0  0  0  0  0
   -6.9664    0.6714    2.4893 C   0  0  0  0  0  0  0  0  0  0  0  0
   -6.5786    0.6898    0.9910 C   0  0  1  0  0  0  0  0  0  0  0  0
   -7.3389   -4.7912    2.5178 C   0  0  0  0  0  0  0  0  0  0  0  0
   -8.3228   -6.9408    1.6705 C   0  0  0  0  0  0  0  0  0  0  0  0
   -4.2942   -8.2807    0.8159 C   0  0  0  0  0  0  0  0  0  0  0  0
   -6.1965   -7.8645   -0.8134 C   0  0  0  0  0  0  0  0  0  0  0  0
   -5.5999   -1.1640   -0.5034 C   0  0  0  0  0  0  0  0  0  0  0  0
   -5.1081   -4.9189   -0.7830 C   0  0  0  0  0  0  0  0  0  0  0  0
   -4.9065   -5.3202    0.6990 C   0  0  0  0  0  0  0  0  0  0  0  0
   -7.3176   -5.8243    1.3899 C   0  0  0  0  0  0  0  0  0  0  0  0
   -5.7240   -7.7714    0.6358 C   0  0  0  0  0  0  0  0  0  0  0  0
   -5.6273    1.8423    0.6491 C   0  0  0  0  0  0  0  0  0  0  0  0
   -5.9334   -0.6002    0.7934 N   0  0  0  0  0  0  0  0  0  0  0  0
   -4.9404   -3.4860   -0.9562 N   0  0  0  0  0  0  0  0  0  0  0  0
   -5.8679   -6.3656    1.2471 N   0  3  0  0  0  0  0  0  0  0  0  0
   -4.9677   -2.2967    2.0017 O   0  0  0  0  0  0  0  0  0  0  0  0
   -7.0584   -3.0738   -0.2312 O   0  0  0  0  0  0  0  0  0  0  0  0
   -6.2356    3.0308    0.8259 F   0  0  0  0  0  0  0  0  0  0  0  0
   -4.5150    1.8195    1.4207 F   0  0  0  0  0  0  0  0  0  0  0  0
   -5.2207    1.7733   -0.6438 F   0  0  0  0  0  0  0  0  0  0  0  0
   -6.4774   -0.9756    3.8910 H   0  0  0  0  0  0  0  0  0  0  0  0
   -5.1256    0.1098    3.5635 H   0  0  0  0  0  0  0  0  0  0  0  0
   -8.0015    0.3339    2.5723 H   0  0  0  0  0  0  0  0  0  0  0  0
   -6.9009    1.6619    2.9403 H   0  0  0  0  0  0  0  0  0  0  0  0
   -7.4473    0.7982    0.3353 H   0  0  0  0  0  0  0  0  0  0  0  0
   -7.1149   -5.2600    3.4844 H   0  0  0  0  0  0  0  0  0  0  0  0
   -6.6613   -3.9547    2.3544 H   0  0  0  0  0  0  0  0  0  0  0  0
   -8.3483   -4.3779    2.5783 H   0  0  0  0  0  0  0  0  0  0  0  0
   -8.0899   -7.4799    2.5953 H   0  0  0  0  0  0  0  0  0  0  0  0
   -8.4278   -7.6590    0.8565 H   0  0  0  0  0  0  0  0  0  0  0  0
   -9.3000   -6.4722    1.8107 H   0  0  0  0  0  0  0  0  0  0  0  0
   -3.5860   -7.7866    0.1462 H   0  0  0  0  0  0  0  0  0  0  0  0
   -3.9407   -8.1732    1.8474 H   0  0  0  0  0  0  0  0  0  0  0  0
   -4.2766   -9.3473    0.5772 H   0  0  0  0  0  0  0  0  0  0  0  0
   -5.4679   -7.4508   -1.5120 H   0  0  0  0  0  0  0  0  0  0  0  0
   -7.1598   -7.3801   -0.9827 H   0  0  0  0  0  0  0  0  0  0  0  0
   -6.3150   -8.9232   -1.0595 H   0  0  0  0  0  0  0  0  0  0  0  0
   -4.5464   -0.9867   -0.7464 H   0  0  0  0  0  0  0  0  0  0  0  0
   -6.2040   -0.6690   -1.2666 H   0  0  0  0  0  0  0  0  0  0  0  0
   -4.3924   -5.4300   -1.4288 H   0  0  0  0  0  0  0  0  0  0  0  0
   -6.1078   -5.1684   -1.1330 H   0  0  0  0  0  0  0  0  0  0  0  0
   -5.0192   -4.4361    1.3229 H   0  0  0  0  0  0  0  0  0  0  0  0
   -3.9019   -5.7083    0.8670 H   0  0  0  0  0  0  0  0  0  0  0  0
   -7.5402   -5.3264    0.4472 H   0  0  0  0  0  0  0  0  0  0  0  0
   -6.3773   -8.3813    1.2597 H   0  0  0  0  0  0  0  0  0  0  0  0
   -3.9977   -3.1167   -0.9714 H   0  0  0  0  0  0  0  0  0  0  0  0
   -5.5579   -6.4946    2.2161 H   0  0  0  0  0  0  0  0  0  0  0  0
  1  3  1  0  0  0  0
  1 16  1  0  0  0  0
  1 19  2  0  0  0  0
  2 10  1  0  0  0  0
  2 17  1  0  0  0  0
  2 20  2  0  0  0  0
  3  4  1  0  0  0  0
  3 24  1  0  0  0  0
  3 25  1  0  0  0  0
  4  5  1  0  0  0  0
  4 26  1  0  0  0  0
  4 27  1  0  0  0  0
  5 15  1  0  0  0  0
  5 16  1  0  0  0  0
  5 28  1  0  0  0  0
  6 13  1  0  0  0  0
  6 29  1  0  0  0  0
  6 30  1  0  0  0  0
  6 31  1  0  0  0  0
  7 13  1  0  0  0  0
  7 32  1  0  0  0  0
  7 33  1  0  0  0  0
  7 34  1  0  0  0  0
  8 14  1  0  0  0  0
  8 35  1  0  0  0  0
  8 36  1  0  0  0  0
  8 37  1  0  0  0  0
  9 14  1  0  0  0  0
  9 38  1  0  0  0  0
  9 39  1  0  0  0  0
  9 40  1  0  0  0  0
 10 16  1  0  0  0  0
 10 41  1  0  0  0  0
 10 42  1  0  0  0  0
 11 12  1  0  0  0  0
 11 17  1  0  0  0  0
 11 43  1  0  0  0  0
 11 44  1  0  0  0  0
 12 18  1  0  0  0  0
 12 45  1  0  0  0  0
 12 46  1  0  0  0  0
 13 18  1  0  0  0  0
 13 47  1  0  0  0  0
 14 18  1  0  0  0  0
 14 48  1  0  0  0  0
 15 21  1  0  0  0  0
 15 22  1  0  0  0  0
 15 23  1  0  0  0  0
 17 49  1  0  0  0  0
 18 50  1  0  0  0  0
M  CHG  1  18   1
M  END
$$$$
