
  -OEChem-05262117483D

 41 42  0     1  0  0  0  0  0999 V2000
    4.4556   -2.4906   -6.4365 C   0  0  0  0  0  0  0  0  0  0  0  0
    5.3111   -1.5659   -8.4158 C   0  0  0  0  0  0  0  0  0  0  0  0
    3.8354   -3.3188   -5.3509 C   0  0  0  0  0  0  0  0  0  0  0  0
    6.0640   -5.2109    0.0069 C   0  0  0  0  0  0  0  0  0  0  0  0
    4.8113   -5.9873   -0.4222 C   0  0  0  0  0  0  0  0  0  0  0  0
    6.6824   -4.4558   -1.1777 C   0  0  0  0  0  0  0  0  0  0  0  0
    3.7875   -5.0694   -1.1052 C   0  0  0  0  0  0  0  0  0  0  0  0
    5.6549   -3.5401   -1.8583 C   0  0  0  0  0  0  0  0  0  0  0  0
    4.4013   -4.3143   -2.2946 C   0  0  0  0  0  0  0  0  0  0  0  0
    8.2995   -0.6444  -11.0832 C   0  0  0  0  0  0  0  0  0  0  0  0
    8.1275   -2.4981   -9.3403 C   0  0  0  0  0  0  0  0  0  0  0  0
    3.3499   -3.3994   -2.9398 C   0  0  0  0  0  0  0  0  0  0  0  0
    7.6456   -1.1222   -9.7858 C   0  0  0  0  0  0  0  0  0  0  0  0
    5.0177   -1.3233   -6.2379 N   0  0  0  0  0  0  0  0  0  0  0  0
    5.5106   -0.7789   -7.3934 N   0  0  0  0  0  0  0  0  0  0  0  0
    3.8267   -2.7163   -4.1388 N   0  0  0  0  0  0  0  0  0  0  0  0
    3.3835   -4.4381   -5.5990 O   0  0  0  0  0  0  0  0  0  0  0  0
    5.4940   -2.3985  -10.9253 O   0  0  0  0  0  0  0  0  0  0  0  0
    4.4823   -3.0565   -8.0804 S   0  0  0  0  0  0  0  0  0  0  0  0
    5.7985   -1.1517  -10.1159 S   0  0  1  0  0  0  0  0  0  0  0  0
    6.8002   -5.8926    0.4486 H   0  0  0  0  0  0  0  0  0  0  0  0
    5.7920   -4.4909    0.7915 H   0  0  0  0  0  0  0  0  0  0  0  0
    5.1009   -6.7843   -1.1204 H   0  0  0  0  0  0  0  0  0  0  0  0
    4.3534   -6.4800    0.4435 H   0  0  0  0  0  0  0  0  0  0  0  0
    7.5464   -3.8682   -0.8462 H   0  0  0  0  0  0  0  0  0  0  0  0
    7.0589   -5.1809   -1.9122 H   0  0  0  0  0  0  0  0  0  0  0  0
    2.9221   -5.6535   -1.4413 H   0  0  0  0  0  0  0  0  0  0  0  0
    3.4106   -4.3407   -0.3721 H   0  0  0  0  0  0  0  0  0  0  0  0
    5.3585   -2.7456   -1.1566 H   0  0  0  0  0  0  0  0  0  0  0  0
    6.1128   -3.0448   -2.7227 H   0  0  0  0  0  0  0  0  0  0  0  0
    4.6959   -5.0525   -3.0526 H   0  0  0  0  0  0  0  0  0  0  0  0
    8.1220   -1.3580  -11.8935 H   0  0  0  0  0  0  0  0  0  0  0  0
    7.9237    0.3358  -11.3932 H   0  0  0  0  0  0  0  0  0  0  0  0
    9.3810   -0.5606  -10.9360 H   0  0  0  0  0  0  0  0  0  0  0  0
    7.8027   -3.2636  -10.0513 H   0  0  0  0  0  0  0  0  0  0  0  0
    7.7533   -2.7605   -8.3474 H   0  0  0  0  0  0  0  0  0  0  0  0
    9.2218   -2.5064   -9.3021 H   0  0  0  0  0  0  0  0  0  0  0  0
    3.0267   -2.6322   -2.2279 H   0  0  0  0  0  0  0  0  0  0  0  0
    2.4728   -3.9870   -3.2233 H   0  0  0  0  0  0  0  0  0  0  0  0
    7.7525   -0.3755   -8.9919 H   0  0  0  0  0  0  0  0  0  0  0  0
    4.2828   -1.8137   -4.0703 H   0  0  0  0  0  0  0  0  0  0  0  0
  1  3  1  0  0  0  0
  1 14  2  0  0  0  0
  1 19  1  0  0  0  0
  2 15  2  0  0  0  0
  2 19  1  0  0  0  0
  2 20  1  0  0  0  0
  3 16  1  0  0  0  0
  3 17  2  0  0  0  0
  4  5  1  0  0  0  0
  4  6  1  0  0  0  0
  4 21  1  0  0  0  0
  4 22  1  0  0  0  0
  5  7  1  0  0  0  0
  5 23  1  0  0  0  0
  5 24  1  0  0  0  0
  6  8  1  0  0  0  0
  6 25  1  0  0  0  0
  6 26  1  0  0  0  0
  7  9  1  0  0  0  0
  7 27  1  0  0  0  0
  7 28  1  0  0  0  0
  8  9  1  0  0  0  0
  8 29  1  0  0  0  0
  8 30  1  0  0  0  0
  9 12  1  0  0  0  0
  9 31  1  0  0  0  0
 10 13  1  0  0  0  0
 10 32  1  0  0  0  0
 10 33  1  0  0  0  0
 10 34  1  0  0  0  0
 11 13  1  0  0  0  0
 11 35  1  0  0  0  0
 11 36  1  0  0  0  0
 11 37  1  0  0  0  0
 12 16  1  0  0  0  0
 12 38  1  0  0  0  0
 12 39  1  0  0  0  0
 13 20  1  0  0  0  0
 13 40  1  0  0  0  0
 14 15  1  0  0  0  0
 16 41  1  0  0  0  0
 18 20  2  0  0  0  0
M  END
$$$$
