
  -OEChem-05262117483D

 24 25  0     1  0  0  0  0  0999 V2000
    0.4599    3.7955   -2.0035 C   0  0  0  0  0  0  0  0  0  0  0  0
   -1.0021    2.7498   -0.3131 C   0  0  0  0  0  0  0  0  0  0  0  0
   -1.4040    1.6377    0.4250 C   0  0  0  0  0  0  0  0  0  0  0  0
    0.6789    1.4143   -1.4643 C   0  0  0  0  0  0  0  0  0  0  0  0
    0.0410    2.6462   -1.2524 C   0  0  0  0  0  0  0  0  0  0  0  0
    0.2602    0.3125   -0.7271 C   0  0  0  0  0  0  0  0  0  0  0  0
   -0.7648    0.4177    0.2225 C   0  0  0  0  0  0  0  0  0  0  0  0
    0.5990   -1.9827   -0.1054 C   0  0  0  0  0  0  0  0  0  0  0  0
   -0.1468   -1.6550    1.1795 C   0  0  1  0  0  0  0  0  0  0  0  0
    0.8226   -1.1729    2.2636 C   0  0  0  0  0  0  0  0  0  0  0  0
    0.8073    4.7215   -2.6176 N   0  0  0  0  0  0  0  0  0  0  0  0
    0.8148   -0.9838   -0.9449 N   0  3  0  0  0  0  0  0  0  0  0  0
    1.0322   -3.2184   -0.3252 N   0  0  0  0  0  0  0  0  0  0  0  0
   -1.1770   -0.7050    0.8978 O   0  0  0  0  0  0  0  0  0  0  0  0
   -1.4896    3.7071   -0.1607 H   0  0  0  0  0  0  0  0  0  0  0  0
   -2.2062    1.7017    1.1532 H   0  0  0  0  0  0  0  0  0  0  0  0
    1.4784    1.3327   -2.1956 H   0  0  0  0  0  0  0  0  0  0  0  0
   -0.6797   -2.5483    1.5117 H   0  0  0  0  0  0  0  0  0  0  0  0
    1.3682   -0.2805    1.9469 H   0  0  0  0  0  0  0  0  0  0  0  0
    1.5450   -1.9551    2.5143 H   0  0  0  0  0  0  0  0  0  0  0  0
    0.2457   -0.9328    3.1595 H   0  0  0  0  0  0  0  0  0  0  0  0
    1.3349   -1.1342   -1.8071 H   0  0  0  0  0  0  0  0  0  0  0  0
    1.5611   -3.4840   -1.1515 H   0  0  0  0  0  0  0  0  0  0  0  0
    0.8316   -3.9558    0.3421 H   0  0  0  0  0  0  0  0  0  0  0  0
  1  5  1  0  0  0  0
  1 11  3  0  0  0  0
  2  3  1  0  0  0  0
  2  5  2  0  0  0  0
  2 15  1  0  0  0  0
  3  7  2  0  0  0  0
  3 16  1  0  0  0  0
  4  5  1  0  0  0  0
  4  6  2  0  0  0  0
  4 17  1  0  0  0  0
  6  7  1  0  0  0  0
  6 12  1  0  0  0  0
  7 14  1  0  0  0  0
  8  9  1  0  0  0  0
  8 12  2  0  0  0  0
  8 13  1  0  0  0  0
  9 10  1  0  0  0  0
  9 14  1  0  0  0  0
  9 18  1  0  0  0  0
 10 19  1  0  0  0  0
 10 20  1  0  0  0  0
 10 21  1  0  0  0  0
 12 22  1  0  0  0  0
 13 23  1  0  0  0  0
 13 24  1  0  0  0  0
M  CHG  1  12   1
M  END
$$$$
