49
0 1 C15F3H26N3O2
C                    -5.933369057531     0.368386487662     1.101303158147
C                    -5.805684978474    -2.519032745471    -0.454224201294
C                    -7.071174653291     1.376713035266     1.191274200887
C                    -7.913279188209     1.098334230574    -0.063204846666
C                    -6.923460301333     0.441678415065    -1.056036566948
C                    -8.849407728831    -7.798187124301     1.755601520933
C                    -8.856622292791    -5.687816612789     0.421410589223
C                    -5.899246811386    -7.178498274036     3.626009117242
C                    -4.596823816412    -7.834129618340     1.545641064412
C                    -5.029118019786    -1.195512386459    -0.559021551202
C                    -5.613230698935    -4.968827621900    -0.250814021998
C                    -6.048109620769    -5.264586886944     1.194000061492
C                    -8.164673532395    -6.437865305510     1.570856300291
C                    -5.985445011118    -7.544630599075     2.131234365522
C                    -6.380375466884     1.442998661692    -2.075781292937
N                    -5.858678440675    -0.066770818427    -0.207350856149
N                    -5.030081561526    -3.633459699530    -0.392196175951
N                    -6.714664119345    -6.567291472987     1.297917140986
O                    -5.195825399102    -0.010503257447     2.001382829527
O                    -7.037820031608    -2.550888282201    -0.475349823394
F                    -7.371784652988     1.887366826310    -2.886215545482
F                    -5.816827185652     2.527862352987    -1.491427605319
F                    -5.432219495570     0.884058026977    -2.873309744122
H                    -7.613233847055     1.236414070020     2.127526822981
H                    -6.644138016009     2.384420366157     1.194989379455
H                    -8.693981936679     0.368252812207     0.160106369872
H                    -8.388123462155     1.987611304834    -0.480513846831
H                    -7.390868270192    -0.368376009953    -1.619735748353
H                    -8.637395445885    -8.456096767000     0.905217775716
H                    -8.550065891736    -8.309503947931     2.674371001129
H                    -9.932626626227    -7.651154103877     1.806106257420
H                    -8.760872629619    -6.259156245265    -0.508964133502
H                    -8.448769721132    -4.688514896757     0.253314717700
H                    -9.922699611012    -5.572499812611     0.644981017926
H                    -5.312063327467    -6.268113241611     3.788539568540
H                    -6.893238260568    -7.014647784894     4.054047428774
H                    -5.420519159896    -7.985189978968     4.192283407248
H                    -3.921667679863    -6.975077754617     1.624632426170
H                    -4.679509671200    -8.112146296483     0.490462680022
H                    -4.127575612636    -8.663019635204     2.085973870444
H                    -4.175160867868    -1.196775468960     0.123429663620
H                    -4.650601376361    -1.082757407243    -1.578651609781
H                    -6.473736360625    -5.034547838351    -0.916651850585
H                    -4.876683375358    -5.704909724624    -0.582384481631
H                    -5.165048854704    -5.218803538323     1.839659034802
H                    -6.702058562550    -4.454599953187     1.533601049886
H                    -8.326511327766    -5.852347110521     2.495768120292
H                    -6.540002052946    -8.481837158343     2.052873290864
H                    -4.038141647722    -3.517200556451    -0.229360934456
