17   
torsion grid (-165,)
C        0.6705154552    0.4461435149    1.7889786509
C        0.5454221107   -0.6293904771    0.9035996799
C        0.4867241484    0.2205863202    3.1531272561
C        0.2361467315   -1.8864824256    1.4273032702
C        0.1804897543   -1.0812941992    3.5517417563
C        0.8852616388   -2.0371993803    5.5965895411
C        0.3218111934   -2.5227862802    6.9060221788
N        0.0498417134   -2.1154052124    2.7362056423
O        1.9996904821   -2.2350737430    5.1754413304
O       -0.0704044999   -1.3204611130    4.9034719365
H        0.9111588395    1.4415001169    1.4252562656
H        0.6827909838   -0.5006247820   -0.1657542854
H        0.5773650489    1.0106902952    3.8911767635
H        0.1283098026   -2.7495377627    0.7728987854
H       -0.2569709802   -1.7366522792    7.3968290445
H        1.1320522535   -2.8639887982    7.5499979418
H       -0.3577189887   -3.3566967157    6.7024396320
17   
torsion grid (-150,)
C        0.6076929818    0.4641209383    1.7329823787
C        0.4871862012   -0.6724745303    0.9260299875
C        0.5151087791    0.3223329908    3.1170912471
C        0.2717320350   -1.9044935656    1.5467346717
C        0.2955196484   -0.9631724537    3.6168968227
C        0.9662331248   -2.0083837208    5.6395474339
C        0.2690315408   -2.6045893877    6.8319896126
N        0.1689463504   -2.0538577189    2.8760527488
O        2.0815870653   -2.2605699389    5.2564891510
O        0.1279111050   -1.1135452635    4.9885612382
H        0.7779305159    1.4430929700    1.2929460084
H        0.5574292020   -0.6089115667   -0.1555526387
H        0.6108579596    1.1622144862    3.7971524350
H        0.1704078666   -2.8136046784    0.9568058306
H       -0.2892392481   -1.8424956470    7.3812902045
H        0.9945969980   -3.0947994534    7.4809460761
H       -0.4518730576   -3.3425401412    6.4647834470
17   
torsion grid (-135,)
C        0.5282036681    0.4607366093    1.7113684126
C        0.4061777978   -0.7190402501    0.9677297100
C        0.5391885213    0.3861632242    3.1028847327
C        0.2930334349   -1.9258115882    1.6596063122
C        0.4140007713   -0.8816944058    3.6792008786
C        1.0575535840   -1.9925291475    5.6829100495
C        0.2129533040   -2.6560650130    6.7334363815
N        0.2880201435   -2.0125756721    2.9987134823
O        2.1854700608   -2.2776745495    5.3738223631
O        0.3479739236   -0.9619800234    5.0585084415
H        0.6221327251    1.4230420160    1.2151303683
H        0.3989977666   -0.7065855598   -0.1178061855
H        0.6439081443    1.2625137321    3.7337432266
H        0.1952674216   -2.8673851158    1.1223093186
H       -0.3323349416   -1.9137929030    7.3218556972
H        0.8326106516   -3.2811973804    7.3763384252
H       -0.5275106764   -3.2763226760    6.2169142178
17   
torsion grid (-120,)
C        0.4336959811    0.4680962088    1.6672843181
C        0.3054664538   -0.7411632928    0.9709681569
C        0.5397353812    0.4452876185    3.0551851774
C        0.2833008380   -1.9245864531    1.7079723070
C        0.5004968069   -0.8063242260    3.6825196117
C        1.1191984804   -1.9682602100    5.6641309073
C        0.1317411619   -2.6687320565    6.5507394179
N        0.3712604723   -1.9640144470    3.0474365732
O        2.2645864643   -2.2725744331    5.4662610254
O        0.5425725472   -0.8343572729    5.0577560790
H        0.4597013729    1.4149028035    1.1343078211
H        0.2263941751   -0.7666979875   -0.1113573531
H        0.6545835770    1.3466930229    3.6477569334
H        0.1853986854   -2.8879779553    1.2109311224
H       -0.4009019660   -1.9483444514    7.1773624255
H        0.6353583277   -3.4166555436    7.1633222632
H       -0.6073295919   -3.1522227715    5.9028287927
17   
torsion grid (-105,)
C        0.8166175563    0.6435831807    1.9642508209
C        0.4353317889    0.0016337408    0.7768689781
C        1.1687511121   -0.1218288323    3.0707804871
C        0.4217034265   -1.3911899735    0.7605736248
C        1.1141087185   -1.5165919136    2.9318751505
C        1.7399689681   -3.6390782874    3.7991297740
C        0.6165768255   -4.5462392756    4.2051811881
N        0.7499530356   -2.1475363150    1.8220663974
O        2.8197274417   -3.9548394956    3.3824666599
O        1.4245390548   -2.2756549952    4.0295444232
H        0.8452953972    1.7284959336    2.0224351789
H        0.1592293651    0.5646197514   -0.1090911062
H        1.4824379440    0.3184874464    4.0112922031
H        0.1338660742   -1.9352200842   -0.1371258614
H        0.2793066788   -4.2964733131    5.2152841259
H        0.9333724120   -5.5879942669    4.1526848575
H       -0.2215616118   -4.3722706232    3.5228048106
17   
torsion grid (-90,)
C        0.7578346016    0.5915361487    1.9996378813
C        0.3884947785   -0.0763731844    0.8218187226
C        1.1948887372   -0.1457344730    3.0937817429
C        0.4755005690   -1.4656318810    0.8026718944
C        1.2417504361   -1.5420834931    2.9529581529
C        1.8328281730   -3.6685794657    3.8416688908
C        0.5827452683   -4.4419211049    4.1471360245
N        0.8941407397   -2.1966303443    1.8511299649
O        2.9149253662   -4.1103822375    3.5749101603
O        1.6675905210   -2.2688650051    4.0294106141
H        0.7079448992    1.6755906645    2.0597899771
H        0.0462062301    0.4655307095   -0.0540631694
H        1.4995922288    0.3161148394    4.0269137637
H        0.2020694462   -2.0295160119   -0.0871987723
H        0.2537164462   -4.2099032404    5.1649633289
H        0.7718119965   -5.5107695765    4.0466162070
H       -0.2075584001   -4.1307962422    3.4589903369
17   
torsion grid (-75,)
C        0.6816465622    0.5516695978    2.0328994767
C        0.3057697156   -0.1052843750    0.8512793408
C        1.1825310643   -0.1904555771    3.0961874147
C        0.4541902199   -1.4885502027    0.7959111323
C        1.2897850811   -1.5792017275    2.9196899576
C        1.8032167043   -3.7168194404    3.8556884720
C        0.4469121461   -4.3332364531    4.0662677523
N        0.9416722022   -2.2231872113    1.8115809127
O        2.8479938751   -4.2992203455    3.7647627490
O        1.8084091539   -2.3034715955    3.9568127481
H        0.5837702681    1.6304547309    2.1214642234
H       -0.0872133335    0.4402337401   -0.0007631335
H        1.4901542193    0.2628037421    4.0325881385
H        0.1785905120   -2.0437391616   -0.0987350127
H        0.1341268286   -4.1350204573    5.0972524276
H        0.5061715182   -5.4093515848    3.9030454030
H       -0.2884962099   -3.8882600565    3.3944062401
17   
torsion grid (-60,)
C        0.6774283223    0.5208522808    2.0768128690
C        0.3025111609   -0.1427983140    0.8994406731
C        1.2737972207   -0.2014862660    3.1044076860
C        0.5505174901   -1.5104386012    0.8109782284
C        1.4753885978   -1.5749603390    2.8975049855
C        2.0593248387   -3.6713774795    3.9373916815
C        0.6742005516   -4.2558843056    4.0492649404
N        1.1336934473   -2.2235795786    1.7907062660
O        3.0921294267   -4.2782171045    4.0285813290
O        2.1099153518   -2.2645645686    3.8967607687
H        0.5041142297    1.5876659006    2.1907771039
H       -0.1646709339    0.3856033533    0.0744544141
H        1.5849743047    0.2568664007    4.0371703725
H        0.2805599099   -2.0689989231   -0.0833072533
H        0.1676085967   -3.8118251064    4.9121962559
H        0.7542475740   -5.3348940062    4.1803847071
H        0.0896348267   -4.0302945719    3.1563531175
17   
torsion grid (-45,)
C        0.6223144239    0.5307557926    2.1028252951
C        0.1827292444   -0.1578953792    0.9634075199
C        1.3019535916   -0.1654740608    3.0968861929
C        0.4536638119   -1.5217661796    0.8756145591
C        1.5185978069   -1.5364634614    2.8938052956
C        2.1218299621   -3.5841895907    4.0136195656
C        0.7230272768   -4.1556368623    3.9978705786
N        1.1185897583   -2.2081986392    1.8212659563
O        3.1170651611   -4.2100481127    4.2696997076
O        2.2392608741   -2.1978850485    3.8560743938
H        0.4340960339    1.5952524379    2.2143446101
H       -0.3508947138    0.3486004507    0.1653501532
H        1.6648221724    0.3114506188    4.0012300432
H        0.1351922488   -2.0978121132    0.0088205122
H       -0.0348265587   -3.4008966364    4.2151174393
H        0.6835104131   -4.9598105020    4.7349172510
H        0.5168437655   -4.5719746399    3.0097144358
17   
torsion grid (-30,)
C        0.5899668232    0.4985180675    2.1345386975
C        0.1272033996   -0.1656173784    0.9908335799
C        1.3292558329   -0.2103080992    3.0771269209
C        0.4352460373   -1.5174627919    0.8457467287
C        1.5774562468   -1.5655741496    2.8195395694
C        2.1638763933   -3.5760828855    4.0397231763
C        0.7505687386   -4.1039075329    3.9536364541
N        1.1571778555   -2.2134063483    1.7403783100
O        3.1072797642   -4.2055044147    4.4460032586
O        2.3689290937   -2.2337066635    3.7254175091
H        0.3744155601    1.5522796139    2.2897000034
H       -0.4522979293    0.3497764484    0.2313098515
H        1.7137832752    0.2470943635    3.9826361192
H        0.1004184661   -2.0735499991   -0.0279171529
H        0.0115140596   -3.3328429693    4.1834341536
H        0.6633111526   -4.9353983222    4.6540018896
H        0.5561353163   -4.4623269786    2.9409350692
17   
torsion grid (-15,)
C        0.5768054382    0.4800969819    2.1689300999
C        0.0990654324   -0.1698762824    1.0241809571
C        1.3522997577   -0.2347244013    3.0785382298
C        0.4293311622   -1.5128634906    0.8432090279
C        1.6171236217   -1.5791727694    2.7884668940
C        2.1678478246   -3.5271896302    4.1370615180
C        0.7627168130   -4.0535102739    3.9630449777
N        1.1847266648   -2.2128987102    1.7057302291
O        3.0538204641   -4.1133403767    4.7068135481
O        2.4483546822   -2.2516907625    3.6600902300
H        0.3463903430    1.5264202686    2.3506761260
H       -0.5086068476    0.3492504167    0.2895223666
H        1.7522148247    0.2116111144    3.9829265251
H        0.0839711213   -2.0565791390   -0.0341720616
H        0.0142744872   -3.2796242074    4.1531184090
H        0.6309336799   -4.8845866641    4.6559598073
H        0.6235552341   -4.4013009916    2.9376889755
17   
torsion grid (0,)
C        0.5812111690    0.4367460015    2.2022522035
C        0.0863742639   -0.1816530552    1.0480886514
C        1.3917242871   -0.2965621739    3.0667951315
C        0.4336078817   -1.5123638126    0.8118005299
C        1.6692133428   -1.6250374928    2.7244040858
C        2.1785242289   -3.5049646290    4.1805453643
C        0.7856024984   -4.0391174954    3.9457362825
N        1.2198655368   -2.2289291724    1.6314273436
O        3.0068889541   -4.0310492379    4.8813617036
O        2.5343430975   -2.3209543898    3.5488181483
H        0.3389970401    1.4722881566    2.4256503383
H       -0.5474534662    0.3521027550    0.3466841776
H        1.8088182580    0.1258515432    3.9749692193
H        0.0754820367   -2.0305660438   -0.0758627004
H        0.0280045427   -3.2633213072    4.0889500976
H        0.6187208851   -4.8575404889    4.6455345974
H        0.6951488191   -4.3973012219    2.9183359395
17   
torsion grid (15,)
C        1.2939032628    0.2687322196    1.7182465102
C        0.2387875002   -0.2284588784    0.9431976308
C        1.6213425775   -0.3763055888    2.9083899703
C       -0.4450694263   -1.3527674440    1.4054684608
C        0.8621565403   -1.4970369536    3.2681478308
C        1.2785442226   -3.4528746661    4.6530878914
C        1.4387314559   -4.3038993894    3.4154266627
N       -0.1482037881   -1.9795643954    2.5559566056
O        1.3054971501   -3.8735411940    5.7824516782
O        1.1498493353   -2.0786951051    4.4854546753
H        1.8538279465    1.1435266435    1.3986637940
H       -0.0497904458    0.2433538545    0.0090685508
H        2.4267523034   -0.0400017312    3.5528133005
H       -1.2747385698   -1.7705983816    0.8382278009
H        0.4669266035   -4.4497279499    2.9400087409
H        1.8466689391   -5.2663426417    3.7244415930
H        2.0971495752   -3.8314475065    2.6816458700
17   
torsion grid (30,)
C        1.2581003574    0.2955572991    1.6525212741
C        0.2002132160   -0.2385677601    0.9049397507
C        1.6315026948   -0.3280041121    2.8396150571
C       -0.4388963438   -1.3780722829    1.3912414155
C        0.9117576085   -1.4666238937    3.2271933346
C        1.1954823312   -3.4051797118    4.6542038308
C        1.4462039178   -4.3073149840    3.4681412487
N       -0.0983778743   -1.9854200924    2.5406197753
O        1.0450250617   -3.7874431335    5.7866711784
O        1.2467216139   -2.0292470372    4.4374357955
H        1.7853013715    1.1829360411    1.3125673384
H       -0.1229053453    0.2167641765   -0.0259716607
H        2.4423852727    0.0365329100    3.4613922269
H       -1.2679899870   -1.8259402907    0.8465866743
H        0.5040174831   -4.5014391794    2.9519678329
H        1.8515641606   -5.2469377939    3.8453719004
H        2.1346870746   -3.8563137818    2.7497228770
17   
torsion grid (45,)
C        1.2488586395    0.3208709427    1.6071032065
C        0.1949941334   -0.2309095852    0.8650290128
C        1.6872877441   -0.3333850821    2.7536360467
C       -0.3742514247   -1.4195164972    1.3171229913
C        1.0330719276   -1.5217907967    3.1105591127
C        1.2205582870   -3.4917448449    4.4873129209
C        1.5422800372   -4.4203491144    3.3393639631
N        0.0293883503   -2.0593584844    2.4285759258
O        0.9112017820   -3.8488170724    5.5940038368
O        1.4386573046   -2.1255362812    4.2742500915
H        1.7229950269    1.2468490839    1.2928246630
H       -0.1764705711    0.2484519419   -0.0351998045
H        2.4985491917    0.0430155963    3.3677530572
H       -1.1967411751   -1.8838182407    0.7762802384
H        0.6190581454   -4.6769750562    2.8158217674
H        1.9752716905   -5.3305457624    3.7582795645
H        2.2273974735   -3.9672687417    2.6206283650
17   
torsion grid (60,)
C        1.1958669013    0.3238382495    1.6507639550
C        0.0876705822   -0.1702992637    0.9472819549
C        1.6854197813   -0.3912566906    2.7382316260
C       -0.4806719102   -1.3670945701    1.3769556572
C        1.0262518403   -1.5825151233    3.0783687019
C        1.1335168186   -3.5976118435    4.3971322052
C        1.5648115365   -4.5504373830    3.3113213179
N       -0.0267740968   -2.0675350913    2.4313689315
O        0.6753469303   -3.9063007859    5.4639677780
O        1.4846491781   -2.2511541864    4.1827735638
H        1.6719649520    1.2539913035    1.3520219453
H       -0.3245140938    0.3588182869    0.0939219539
H        2.5387718327   -0.0593564856    3.3201261530
H       -1.3435263699   -1.7895451869    0.8654812685
H        1.1788877983   -4.2453161460    2.3386978110
H        1.2141435199   -5.5525647221    3.5575298343
H        2.6593180849   -4.5474338940    3.2651854583
17   
torsion grid (75,)
C        1.1576591828    0.3720167487    1.6693122066
C        0.0394921719   -0.1332896146    0.9884481795
C        1.7075712757   -0.3600650470    2.7151630643
C       -0.4760358307   -1.3603961181    1.3969181231
C        1.0970158895   -1.5825524566    3.0378226348
C        1.1110976840   -3.5820243105    4.3464292812
C        1.5808107166   -4.6269715178    3.3710019547
N        0.0386114804   -2.0808954464    2.4093749348
O        0.4939869792   -3.7722982435    5.3574811460
O        1.6230845461   -2.2872788534    4.0847792433
H        1.5938027052    1.3261730734    1.3854732147
H       -0.4188700969    0.4103818268    0.1684920910
H        2.5699747435   -0.0191035574    3.2781232742
H       -1.3431339023   -1.7937523772    0.9020319295
H        1.3600751443   -4.3248856027    2.3461047558
H        1.0996865867   -5.5786751271    3.5966280940
H        2.6666246832   -4.7308948984    3.4716681058
17   
torsion grid (90,)
C        1.1421710188    0.4444806214    1.6678871885
C        0.0367654729   -0.0435211188    0.9540262762
C        1.7215108271   -0.3459144237    2.6535439762
C       -0.4348643288   -1.3152359370    1.2676890160
C        1.1550946739   -1.6104553213    2.8807894955
C        1.0734588620   -3.6153849395    4.1582321396
C        1.5640063401   -4.7581824617    3.3170095512
N        0.1127907491   -2.0956749571    2.2162715021
O        0.3102138084   -3.6668224806    5.0814203298
O        1.7251662619   -2.3908111054    3.8475457018
H        1.5435734904    1.4325225249    1.4583185482
H       -0.4443803839    0.5464009206    0.1804085351
H        2.5726162653   -0.0187025944    3.2412790197
H       -1.2899127773   -1.7381100048    0.7435968863
H        1.3652615635   -4.5415446429    2.2643161753
H        1.0650058247   -5.6806372383    3.6142502374
H        2.6469602030   -4.8580861913    3.4419666359
17   
torsion grid (105,)
C        1.0895120670    0.5036999948    1.7287807819
C       -0.0175192415    0.0252601708    1.0125783454
C        1.7150159988   -0.3267373263    2.6525584843
C       -0.4430543264   -1.2781689543    1.2583214438
C        1.1949230947   -1.6198582890    2.8107060664
C        1.1057346214   -3.5919186689    4.1342225466
C        1.5949495965   -4.8505524515    3.4812694690
N        0.1537902913   -2.0982715266    2.1402446346
O        0.2575273970   -3.4877229040    4.9761636107
O        1.8293222564   -2.4548567822    3.6925781008
H        1.4548371721    1.5153116933    1.5725011503
H       -0.5353254115    0.6452574235    0.2876017127
H        2.5673991191   -0.0081228209    3.2431251454
H       -1.2976494331   -1.6946652636    0.7283408945
H        1.3415732868   -4.7997400109    2.4174991305
H        1.1245713431   -5.7214825404    3.9379879575
H        2.6840125472   -4.9150428022    3.5601481609
17   
torsion grid (120,)
C        1.0593839069    0.5610941273    1.7618450222
C       -0.0500975384    0.1211166373    1.0276390279
C        1.7079865499   -0.3295854261    2.6127602619
C       -0.4547517889   -1.2045738605    1.1792781643
C        1.2094313360   -1.6368928516    2.6760035585
C        1.1278368860   -3.5846920622    4.0394921688
C        1.6339086461   -4.9248449975    3.5926187469
N        0.1669984834   -2.0803865410    1.9853711828
O        0.2178744242   -3.3635149454    4.7922638117
O        1.8814310525   -2.5403600513    3.4671483597
H        1.4081020913    1.5870785084    1.6785661522
H       -0.5869927758    0.7859502801    0.3582582399
H        2.5630280207   -0.0442860882    3.2163948281
H       -1.3109875817   -1.5914342717    0.6297654827
H        1.3598325245   -5.0456145374    2.5390032369
H        1.1826523979   -5.7188614227    4.1877520070
H        2.7246651434   -4.9644560176    3.6556881530
17   
torsion grid (135,)
C        1.4123417524   -0.0784092103    1.4936273115
C        0.2397576051   -0.6087471536    0.9425992611
C        1.7039378592   -0.3261600542    2.8335956105
C       -0.5877523352   -1.3741995380    1.7654169946
C        0.7978368503   -1.1117343375    3.5527361271
C        0.0823554678   -1.3838722854    5.8059384826
C        0.1249966744   -2.5955714927    6.6931933233
N       -0.3140391904   -1.6333152314    3.0533361652
O       -0.7134597373   -0.4817888835    5.8502608772
O        1.1129091121   -1.4277942569    4.8619434734
H        2.0850145866    0.5262500026    0.8911394750
H       -0.0278585041   -0.4350268499   -0.0950921466
H        2.5894880009    0.0675398562    3.3212001521
H       -1.5088868615   -1.8068630838    1.3792693937
H       -0.2446554154   -3.4446967408    6.1083055392
H       -0.5097669791   -2.4460702330    7.5665898758
H        1.1509357797   -2.8240057303    6.9929379027
17   
torsion grid (150,)
C        1.3930544090   -0.0242847578    1.5325281960
C        0.2396391527   -0.5217254755    0.9165182784
C        1.6649991529   -0.3885431491    2.8508613328
C       -0.5891333370   -1.3712949922    1.6521738462
C        0.7601014926   -1.2469293676    3.4790653913
C        0.0926883711   -1.4603194525    5.7470970534
C        0.1689198918   -2.5322357991    6.7998748203
N       -0.3336814210   -1.7392444208    2.9167086024
O       -0.6848660059   -0.5393512068    5.7098274713
O        1.0523471560   -1.6788082190    4.7674604341
H        2.0657857879    0.6415363529    0.9985619943
H       -0.0134100451   -0.2606018360   -0.1065013549
H        2.5362242701   -0.0280341805    3.3875729507
H       -1.4953875572   -1.7822186841    1.2109824303
H       -0.2412380950   -3.4537461551    6.3739678443
H       -0.4151445505   -2.2392783721    7.6721000712
H        1.2066128790   -2.7317377116    7.0792230545
17   
torsion grid (165,)
C        1.3652541710    0.0153494285    1.6055396790
C        0.2478121624   -0.4476687816    0.9032099028
C        1.5965106891   -0.4639679540    2.8948510896
C       -0.5880142475   -1.3771629638    1.5258171456
C        0.6879038244   -1.3916447093    3.4061827136
C        0.0905106787   -1.5371885552    5.6895855550
C        0.2375288807   -2.4595574020    6.8708872038
N       -0.3729736307   -1.8515491805    2.7623412086
O       -0.6500879753   -0.5869267016    5.6061398529
O        0.9317426538   -1.9339318682    4.6685752930
H        2.0419840591    0.7396030479    1.1600788690
H        0.0271973748   -0.0998690902   -0.1014469628
H        2.4405501149   -0.1387847097    3.4940623248
H       -1.4671228165   -1.7640165648    1.0137237049
H       -0.2446892499   -3.4123123136    6.6296700856
H       -0.2443137846   -2.0181941301    7.7429768228
H        1.2912393723   -2.6649173463    7.0750048152
17   
torsion grid (180,)
C        1.2416057180    0.0432560660    1.8177418934
C        0.3044406911   -0.4493450769    0.9024242576
C        1.3143956301   -0.5282589776    3.0862496402
C       -0.5230398292   -1.4976006196    1.3054626381
C        0.4292707525   -1.5725242796    3.3700787843
C        0.3034693883   -1.5366442961    5.7561175765
C        0.4107134023   -2.4632466552    6.9397240101
N       -0.4667696688   -2.0556192116    2.5259315575
O        0.0875820417   -0.3468043945    5.7955921116
O        0.4889974167   -2.2454195845    4.5925160583
H        1.9064128201    0.8596161204    1.5486096608
H        0.2158849426   -0.0331615235   -0.0965611551
H        2.0169189314   -0.1784282660    3.8338055819
H       -1.2661712079   -1.9125750382    0.6270830884
H       -0.3536767164   -3.2422352890    6.8681167796
H        0.2810903935   -1.8946295941    7.8599204213
H        1.3851758606   -2.9600356173    6.9365944891
