18   
torsion grid (-165,)
C        0.9590968869    0.2444892798    1.8650743480
C        0.3151796125   -0.5205722316    0.8882038044
C        1.0902498055   -0.2761328931    3.1507305366
C       -0.1655309695   -1.7783791270    1.2585174311
C        0.5652722825   -1.5500357052    3.4346543370
C        1.6470325838   -1.7281198665    5.8334917931
C        0.1849559415   -1.4197159446    6.0200176614
C        0.6488966631   -2.1785825712    4.7820663125
N       -0.0494830994   -2.2894042117    2.4916125878
H        1.3572352779    1.2278519636    1.6268394875
H        0.1918747341   -0.1592135101   -0.1286469134
H        1.5904890383    0.3006318502    3.9231041246
H       -0.6685787049   -2.4113838856    0.5282027687
H        2.3210746936   -0.9125290396    5.5906299661
H        2.0922677051   -2.5030543794    6.4503308673
H       -0.3756679988   -1.9704475950    6.7695172291
H       -0.1427512626   -0.3951382421    5.8688639229
H        0.4329068862   -3.2414937272    4.7551370996
18   
torsion grid (-150,)
C        1.0612262892    0.2066339130    1.8200656863
C        0.2720554623   -0.4914475658    0.9032538569
C        1.2467441387   -0.3277081088    3.0951916255
C       -0.2898461181   -1.7026068362    1.3167694546
C        0.6263106311   -1.5435014217    3.4279713429
C        1.5926734516   -1.6219933931    5.8916806490
C        0.0895672364   -1.5365393495    5.9848861563
C        0.7450437340   -2.1833304245    4.7698866912
N       -0.1245868757   -2.2231623460    2.5386407955
H        1.5326621555    1.1468543495    1.5443565153
H        0.1016541826   -0.1183622671   -0.1025450244
H        1.8681031929    0.1911801002    3.8179796451
H       -0.9022238732   -2.2865821297    0.6302868066
H        2.1469259180   -0.7036798554    5.7265855178
H        2.1069205910   -2.3392295895    6.5244897500
H       -0.4324945595   -2.1838320761    6.6833297622
H       -0.3713271397   -0.5651693321    5.8308897464
H        0.6796538102   -3.2656535065    4.7185670848
18   
torsion grid (-135,)
C        1.1540125497    0.1548107450    1.7704277903
C        0.2416126289   -0.4702916656    0.9190392760
C        1.3729501089   -0.3870937746    3.0385072051
C       -0.4031112728   -1.6212450995    1.3841014799
C        0.6626433987   -1.5334126798    3.4269643509
C        1.5288857461   -1.5141247086    5.9267193818
C        0.0242627321   -1.6544398510    5.9548003208
C        0.8192869273   -2.1749855563    4.7668839793
N       -0.2067860778   -2.1460775327    2.5985226757
H        1.6940008882    1.0428216791    1.4508233651
H        0.0386964795   -0.0891266076   -0.0777212279
H        2.0922471305    0.0670311568    3.7121240213
H       -1.1118721373   -2.1487025002    0.7462294518
H        1.9370537563   -0.5169141023    5.7959284068
H        2.1188237630   -2.1513722473    6.5788640340
H       -0.4241165225   -2.3838127209    6.6227791729
H       -0.5673946659   -0.7576770639    5.7959850410
H        0.9058678607   -3.2562417805    4.7063363720
18   
torsion grid (-120,)
C        1.2519515135    0.0957829299    1.7317036716
C        0.2452319551   -0.4531366975    0.9361726869
C        1.4810333825   -0.4497282884    2.9968579019
C       -0.4798762108   -1.5338215990    1.4500201197
C        0.6900274932   -1.5220737496    3.4352380793
C        1.4547376766   -1.4171122315    5.9563778785
C       -0.0159447113   -1.7763200948    5.9338362065
C        0.8802809038   -2.1630408745    4.7737421354
N       -0.2728962786   -2.0611290349    2.6617508362
H        1.8529493967    0.9277602671    1.3726436927
H        0.0278996096   -0.0657286975   -0.0551938240
H        2.2675128814   -0.0582978621    3.6343299492
H       -1.2663328015   -1.9985122908    0.8558844060
H        1.7118418799   -0.3691707443    5.8341812813
H        2.1106811098   -1.9618216645    6.6291075062
H       -0.3734363325   -2.5673531928    6.5861688096
H       -0.7264082403   -0.9730049422    5.7627803984
H        1.1244181203   -3.2207807581    4.7099304945
18   
torsion grid (-105,)
C        1.3179786722    0.0282464460    1.6663957061
C        0.2230088068   -0.4353675251    0.9347462484
C        1.5569899482   -0.5146385861    2.9302659827
C       -0.5774913668   -1.4282616168    1.5091939236
C        0.6928532605   -1.5012281422    3.4287458263
C        1.3636558923   -1.3185598357    5.9609351986
C       -0.0431404639   -1.8795565523    5.9021076778
C        0.9211244041   -2.1351435668    4.7669608586
N       -0.3590554725   -1.9540770237    2.7206693179
H        1.9741518993    0.7943910829    1.2604917354
H       -0.0080016888   -0.0452065342   -0.0524903351
H        2.4020645474   -0.1864702637    3.5281578873
H       -1.4382473865   -1.8198809068    0.9678339857
H        1.4771408029   -0.2459575123    5.8307350689
H        2.0717362512   -1.7641732711    6.6536336724
H       -0.2997955632   -2.7121630618    6.5501241396
H       -0.8563167806   -1.1854931085    5.7123229237
H        1.3164049345   -3.1472812548    4.7057485295
18   
torsion grid (-90,)
C        1.3965279075   -0.0452626573    1.6080681281
C        0.2246798313   -0.4141177856    0.9426366144
C        1.6467271263   -0.5862506179    2.8693184497
C       -0.6381853331   -1.3103472311    1.5798579320
C        0.7221024878   -1.4820141125    3.4297406665
C        1.2569172125   -1.2342746286    5.9803400704
C       -0.0509414730   -1.9923720776    5.8655002934
C        0.9790304508   -2.1028620713    4.7704579584
N       -0.4067828564   -1.8366104519    2.7903373368
H        2.0984621244    0.6503345949    1.1545115392
H       -0.0195488191   -0.0197048967   -0.0397364638
H        2.5429263183   -0.3239473638    3.4246956596
H       -1.5631638013   -1.6205304118    1.0946984537
H        1.2249812890   -0.1568448295    5.8427599632
H        1.9942033969   -1.5754962076    6.7014612841
H       -0.2076237340   -2.8534973486    6.5081695115
H       -0.9491251635   -1.4264321700    5.6388906321
H        1.5228825132   -3.0448524106    4.7218341060
18   
torsion grid (-75,)
C        1.4681313009   -0.1325096981    1.5503357690
C        0.2276775771   -0.3941175965    0.9603290880
C        1.7351530600   -0.6711576275    2.8076953379
C       -0.6820767650   -1.1827715938    1.6680955858
C        0.7621817966   -1.4647985270    3.4390144771
C        1.1302724904   -1.1603302777    6.0086412959
C       -0.0391995583   -2.1071879054    5.8330756715
C        1.0429554306   -2.0581927550    4.7873914821
N       -0.4332595234   -1.7090850255    2.8764490250
H        2.2069018987    0.4830062606    1.0427661549
H       -0.0326735647    0.0042118929   -0.0162884458
H        2.6811268887   -0.4844551315    3.3091527532
H       -1.6620560054   -1.4033509764    1.2461808672
H        0.9457292084   -0.0998232099    5.8604766415
H        1.8791441592   -1.3892734369    6.7616382844
H       -0.0920556461   -2.9836401926    6.4720543949
H       -1.0004461009   -1.6856733900    5.5579147348
H        1.7244443412   -2.9070310771    4.7657743215
18   
torsion grid (-60,)
C        1.5154281244   -0.2273429744    1.4878592318
C        0.2209946610   -0.3743819101    0.9777860910
C        1.8034575188   -0.7631133237    2.7407661188
C       -0.7175206244   -1.0506461816    1.7589396997
C        0.7975220976   -1.4459206920    3.4480583469
C        0.9821605075   -1.1063869904    6.0284286483
C       -0.0103924964   -2.2244489295    5.8005747862
C        1.0990220840   -2.0038929078    4.8051749397
N       -0.4483318942   -1.5758295373    2.9638743454
H        2.2792724817    0.3009884729    0.9224618782
H       -0.0569093635    0.0271071496    0.0073769431
H        2.7922205634   -0.6602484052    3.1804656263
H       -1.7390178732   -1.1787450519    1.4023928626
H        0.6421349122   -0.0880484897    5.8621224771
H        1.7253872177   -1.2157854232    6.8132655917
H        0.0491314789   -3.1008739771    6.4391063401
H       -1.0102489694   -1.9593859432    5.4746186731
H        1.9023573753   -2.7378586938    4.8187277999
18   
torsion grid (-45,)
C        1.5571063210   -0.3280299044    1.4216441864
C        0.2265533142   -0.3576213267    0.9902589753
C        1.8658336028   -0.8568936810    2.6724429383
C       -0.7253636527   -0.9161186053    1.8449224640
C        0.8420264198   -1.4190023380    3.4568152579
C        0.8432647502   -1.0798230655    6.0374729213
C        0.0516132216   -2.3357533174    5.7671664756
C        1.1597920512   -1.9412972153    4.8204927636
N       -0.4373849281   -1.4347255878    3.0475486446
H        2.3344524923    0.1058985661    0.7973782083
H       -0.0676692789    0.0433926090    0.0245660392
H        2.8853044843   -0.8420030506    3.0493674494
H       -1.7740144003   -0.9507906891    1.5513296549
H        0.3571439037   -0.1275796541    5.8456659576
H        1.5595472366   -1.0719115451    6.8542727366
H        0.2244060469   -3.1967551512    6.4061316036
H       -0.9605972920   -2.2252968852    5.3947932010
H        2.0624050795   -2.5457027434    4.8714179476
18   
torsion grid (-30,)
C        1.5807215924   -0.4246615373    1.3639249031
C        0.2338947306   -0.3388404176    0.9973182533
C        1.9020430538   -0.9368306894    2.6192172878
C       -0.7224892170   -0.7719216767    1.9184332558
C        0.8706545871   -1.3664625197    3.4733801578
C        0.6947735566   -1.0792352591    6.0501918070
C        0.1052918657   -2.4268346030    5.7290003716
C        1.1945155758   -1.8631780525    4.8407101042
N       -0.4245362766   -1.2725188205    3.1247193980
H        2.3634495622   -0.0927748534    0.6860925869
H       -0.0695296376    0.0538832086    0.0311471951
H        2.9369544341   -1.0103102374    2.9432608240
H       -1.7832331176   -0.7152439559    1.6759666671
H        0.0885349028   -0.2039776473    5.8364917597
H        1.3629086649   -0.9824521632    6.9012804565
H        0.3704385334   -3.2678385795    6.3629511762
H       -0.8928855633   -2.4487444666    5.3062351576
H        2.1691444278   -2.3355823911    4.9305694100
18   
torsion grid (-15,)
C        1.5814235944   -0.5264431007    1.3168030418
C        0.2319058302   -0.3397192575    1.0038880280
C        1.9178372413   -1.0041735730    2.5824820242
C       -0.7141053835   -0.6433662037    1.9866503535
C        0.8952511981   -1.2934924478    3.5025376191
C        0.5742546770   -1.0899228289    6.0721085897
C        0.1785428618   -2.4912628435    5.7002171536
C        1.2267605860   -1.7689435171    4.8722482939
N       -0.4033894462   -1.1067044205    3.2032057932
H        2.3568179194   -0.3004071853    0.5888405728
H       -0.0819597639    0.0307530554    0.0323338252
H        2.9569401705   -1.1566097326    2.8622809871
H       -1.7764929532   -0.5078393844    1.7860802894
H       -0.1299427522   -0.2962678138    5.8426520227
H        1.1885588404   -0.9316436814    6.9538215201
H        0.5199827258   -3.3102295811    6.3265757590
H       -0.7891650036   -2.6256744560    5.2290823575
H        2.2513378808   -2.1070413974    4.9991663721
18   
torsion grid (0,)
C        1.5861265024   -0.6303058697    1.2803660542
C        0.2462401973   -0.3475788039    1.0009957976
C        1.9290567850   -1.0657274839    2.5598036453
C       -0.6852564612   -0.5184346201    2.0290911176
C        0.9222430679   -1.2079310904    3.5299283911
C        0.4736161528   -1.1188685395    6.0891117901
C        0.2623841690   -2.5429570116    5.6612484021
C        1.2533278052   -1.6698715714    4.9031950372
N       -0.3681823791   -0.9354661441    3.2602141578
H        2.3495850301   -0.5135389130    0.5150199477
H       -0.0717369701   -0.0056749791    0.0203680831
H        2.9610900149   -1.2946218573    2.8121478942
H       -1.7402117827   -0.3093089150    1.8540427733
H       -0.3106384106   -0.4078557152    5.8504246711
H        1.0279370351   -0.9227909551    7.0023500401
H        0.6704885472   -3.3403179227    6.2755138453
H       -0.6610938166   -2.7725615370    5.1397269005
H        2.3063991581   -1.8765942132    5.0709944555
18   
torsion grid (15,)
C        1.5639530361   -0.7333518121    1.2500079032
C        0.2442028904   -0.3521987407    0.9913125755
C        1.9098976850   -1.1237915531    2.5427461885
C       -0.6649324426   -0.3854353154    2.0520822948
C        0.9288790678   -1.1142309416    3.5494541974
C        0.3751815498   -1.1476596875    6.0930134480
C        0.3505947643   -2.5736467010    5.6190887212
C        1.2588270426   -1.5609408791    4.9291717583
N       -0.3431634375   -0.7541277677    3.2978450488
H        2.3085073415   -0.7295501459    0.4576247848
H       -0.0754045132   -0.0405951571    0.0011544243
H        2.9252269185   -1.4312609676    2.7789978659
H       -1.7046571201   -0.1008393566    1.8930901960
H       -0.4785509142   -0.5266187500    5.8440788477
H        0.8685551232   -0.9221740580    7.0339367694
H        0.8242181395   -3.3395941745    6.2264171614
H       -0.5177520010   -2.8949847346    5.0523946737
H        2.3220237910   -1.6342149181    5.1398488165
18   
torsion grid (30,)
C        1.5286603934   -0.8378032849    1.2404599127
C        0.2426325542   -0.3467716278    0.9940134526
C        1.8712545758   -1.1950857580    2.5428726987
C       -0.6353823181   -0.2436292120    2.0752690489
C        0.9257867266   -1.0384698856    3.5722038345
C        0.2888924930   -1.2094574090    6.0946292495
C        0.4689178968   -2.6152697121    5.5866729857
C        1.2572537248   -1.4693257919    4.9599059861
N       -0.3142737294   -0.5773892828    3.3322533111
H        2.2469868100   -0.9453514041    0.4313199897
H       -0.0744749128   -0.0556122985   -0.0032080891
H        2.8580392670   -1.5891779931    2.7717724137
H       -1.6491059814    0.1267963282    1.9258164144
H       -0.6290720131   -0.6958962167    5.8315865448
H        0.7153819592   -0.9533796648    7.0600472511
H        1.0152524728   -3.3316744076    6.1936196465
H       -0.3291659611   -3.0349882907    4.9815846087
H        2.3118767309   -1.4027065320    5.2138096702
18   
torsion grid (45,)
C        1.4870297908   -0.9409125527    1.2363900130
C        0.2541591601   -0.3255739109    0.9940797503
C        1.8198078623   -1.2777864113    2.5460810491
C       -0.5818758581   -0.0848355873    2.0856922879
C        0.9215310117   -0.9769528124    3.5862703782
C        0.2133364954   -1.2804160684    6.0777346160
C        0.6147009238   -2.6412822989    5.5639307990
C        1.2516165748   -1.3825072831    4.9862806147
N       -0.2677864354   -0.3982720658    3.3511041730
H        2.1694629286   -1.1596038262    0.4186342041
H       -0.0543692993   -0.0446867859   -0.0088432599
H        2.7627304756   -1.7679048617    2.7747706208
H       -1.5543765912    0.3842252305    1.9397721378
H       -0.7561818475   -0.8947125916    5.7832100164
H        0.5541555915   -0.9853269532    7.0657743795
H        1.2322059459   -3.2804203626    6.1887973123
H       -0.0899043811   -3.1668194896    4.9258558341
H        2.2754196603   -1.1715905947    5.2861429224
18   
torsion grid (60,)
C        1.4162309397   -1.0418040781    1.2351967697
C        0.2551874012   -0.3011298377    0.9887794009
C        1.7328705590   -1.3671328612    2.5519102963
C       -0.5287385220    0.0699298239    2.0824808628
C        0.8919365929   -0.9327482157    3.5923481258
C        0.1323202629   -1.3619662030    6.0485450307
C        0.7651800482   -2.6445316912    5.5570216026
C        1.2195652724   -1.3006333012    5.0069854618
N       -0.2292382851   -0.2327953754    3.3547496630
H        2.0545426500   -1.3642272020    0.4161290987
H       -0.0391398297   -0.0235434372   -0.0194110888
H        2.6181524489   -1.9523690436    2.7871899392
H       -1.4454712494    0.6393791895    1.9331339345
H       -0.8718956093   -1.1275395383    5.7127562586
H        0.3741302543   -1.0233705682    7.0516781128
H        1.4424785080   -3.1823832952    6.2145241161
H        0.1783715364   -3.2745733134    4.8944196828
H        2.1864031895   -0.9384539745    5.3509058907
18   
torsion grid (75,)
C        1.3398118446   -1.1386624743    1.2399708034
C        0.2682241982   -0.2774301357    0.9845315980
C        1.6369718484   -1.4586964290    2.5634770063
C       -0.4515331736    0.2155787979    2.0751525695
C        0.8641640813   -0.9035017637    3.5977057775
C        0.0701440012   -1.4654894019    6.0143527937
C        0.9239369192   -2.6308428770    5.5582661633
C        1.1817971609   -1.2325018031    5.0259705423
N       -0.1710966029   -0.0829703096    3.3523591777
H        1.9254413274   -1.5553195060    0.4240639121
H       -0.0080216126    0.0014246374   -0.0284631669
H        2.4533606227   -2.1330200142    2.8083867297
H       -1.2979966585    0.8832562321    1.9178839481
H       -0.9429120998   -1.3944797405    5.6321791259
H        0.2020658695   -1.0963159297    7.0270536634
H        1.6420666368   -3.0559148110    6.2538470209
H        0.4743439882   -3.3474898093    4.8763782376
H        2.0655077727   -0.7271362947    5.4120809238
18   
torsion grid (90,)
C        0.1556411536    0.3744966411    1.8747133047
C        0.5143293054   -0.5668118184    0.9065231549
C        0.0815510951   -0.0330447204    3.2068040899
C        0.7805233032   -1.8729352710    1.3272707972
C        0.3647816140   -1.3685096259    3.5349123239
C        1.4329780138   -2.5317464347    5.6077480370
C        1.0297000090   -1.1408964311    6.0570115784
C        0.2630323701   -1.8420187981    4.9542161711
N        0.7112125961   -2.2750008950    2.6037180393
H       -0.0592317871    1.4036872450    1.5974377015
H        0.5897292120   -0.3012862659   -0.1442309838
H       -0.1890856686    0.6660108131    3.9932431373
H        1.0656203067   -2.6352724548    0.6028904470
H        2.3367071426   -2.6324248773    5.0148196551
H        1.2293848494   -3.3686023822    6.2690602679
H        0.5499349766   -1.0258619107    7.0247912849
H        1.6767905569   -0.3156488809    5.7724099243
H       -0.7223653931   -2.2199133850    5.2220039784
18   
torsion grid (105,)
C        0.2810712509    0.3792764716    1.8874133849
C        0.5094914775   -0.5780122930    0.8971527794
C        0.2114087474   -0.0374482820    3.2180982996
C        0.6522699451   -1.9117673825    1.2938301795
C        0.3766940450   -1.3972584779    3.5216552967
C        1.5124789188   -2.4378263603    5.6258832729
C        0.8932335564   -1.1319324030    6.0822334579
C        0.2836019886   -1.8996232368    4.9301550462
N        0.5895983590   -2.3220608182    2.5664596678
H        0.1566726030    1.4281418690    1.6291387467
H        0.5739511781   -0.3063745976   -0.1527446234
H        0.0280980612    0.6746500747    4.0172412937
H        0.8264866464   -2.6891992318    0.5504674606
H        2.4498267963   -2.3895321611    5.0799624312
H        1.3987259561   -3.3158812881    6.2544707866
H        0.3580726358   -1.1139883514    7.0272618510
H        1.4351311716   -0.2179819483    5.8556652975
H       -0.6450593202   -2.4257926802    5.1425525222
18   
torsion grid (120,)
C        0.3864478284    0.3771306745    1.8939550342
C        0.4803459207   -0.5841100118    0.8865454152
C        0.3277101032   -0.0464908743    3.2235375889
C        0.5024397055   -1.9306856179    1.2659644842
C        0.3751587881   -1.4190682798    3.5090980730
C        1.5851042007   -2.3395120013    5.6289405950
C        0.7785341378   -1.1480780830    6.1003791974
C        0.3104293449   -1.9489072651    4.9068732554
N        0.4520130578   -2.3479776301    2.5358091739
H        0.3520104727    1.4362953121    1.6504549172
H        0.5282771069   -0.3067099644   -0.1626836318
H        0.2367097467    0.6737227078    4.0304780885
H        0.5631771678   -2.7125316500    0.5093463689
H        2.5228670157   -2.1412267969    5.1184441915
H        1.5747578899   -3.2484830452    6.2228556349
H        0.2140309553   -1.2375232336    7.0238951953
H        1.2022709878   -0.1627949089    5.9304448675
H       -0.5375855434   -2.6085826842    5.0747420815
18   
torsion grid (135,)
C        0.5004839040    0.3643826348    1.9064659219
C        0.4550916331   -0.5878613152    0.8870254432
C        0.4544122967   -0.0666537655    3.2337567333
C        0.3563284161   -1.9339711391    1.2542820077
C        0.3776811074   -1.4410918024    3.5067379758
C        1.6353308814   -2.2302991836    5.6532843531
C        0.6565454617   -1.1795332344    6.1246741657
C        0.3386488123   -1.9964450625    4.8929621288
N        0.3179270588   -2.3595734849    2.5216412821
H        0.5605493585    1.4249006182    1.6741018290
H        0.4851504083   -0.3028965870   -0.1607734721
H        0.4671049032    0.6538637696    4.0449713291
H        0.3033005307   -2.7087497828    0.4898588904
H        2.5514008808   -1.8883499369    5.1806912229
H        1.7311868602   -3.1520794813    6.2192887455
H        0.0754401107   -1.3803070815    7.0198901504
H        0.9429042208   -0.1391153982    6.0077629794
H       -0.4141755939   -2.7704357780    5.0132806757
18   
torsion grid (150,)
C        0.6298841324    0.3274615547    1.8904892340
C        0.4405668544   -0.6019991033    0.8653648000
C        0.6081217254   -0.1138492173    3.2136197198
C        0.2319060577   -1.9362565681    1.2258515404
C        0.4103828167   -1.4790324272    3.4798539348
C        1.6747600778   -2.0927403308    5.6823381757
C        0.5266017993   -1.2136193250    6.1121458155
C        0.3939840673   -2.0504683786    4.8572714186
N        0.2146605138   -2.3734406974    2.4906884602
H        0.7825935177    1.3800634903    1.6646578228
H        0.4448702785   -0.3065656996   -0.1798912800
H        0.7382260641    0.5937865199    4.0260759177
H        0.0674082133   -2.6928753191    0.4591886603
H        2.5469106654   -1.6079720281    5.2532002699
H        1.8869503672   -2.9967288809    6.2455244504
H       -0.0627943987   -1.5217826986    6.9705916985
H        0.6450460372   -0.1387009007    6.0214975935
H       -0.2459526181   -2.9238661695    4.9347728045
18   
torsion grid (165,)
C        0.7404066196    0.2883385616    1.8933161035
C        0.3869557849   -0.5959441338    0.8699232075
C        0.7691159449   -0.1771102372    3.2062154910
C        0.0779629232   -1.9110747399    1.2238277361
C        0.4516997479   -1.5225988497    3.4668720113
C        1.6916650767   -1.9470687203    5.7313759861
C        0.4030248274   -1.2555658516    6.0902510612
C        0.4686053815   -2.1082485979    4.8359409772
N        0.1051660788   -2.3726426616    2.4813440246
H        0.9838906099    1.3246723754    1.6719603648
H        0.3469801096   -0.2790253618   -0.1682172299
H        1.0375399783    0.4947711554    4.0161409012
H       -0.2086047538   -2.6329937793    0.4597441514
H        2.5041809757   -1.3403838190    5.3418390594
H        2.0059155332   -2.8063867946    6.3163362412
H       -0.1777435288   -1.6477860439    6.9197812775
H        0.3461814838   -0.1771181827    5.9796954163
H       -0.0441644081   -3.0632893362    4.8819861426
18   
torsion grid (180,)
C        0.8586326037    0.2697585455    1.8947946091
C        0.3582190630   -0.5520794749    0.8798693071
C        0.9338813532   -0.2319645763    3.1915889735
C       -0.0426449703   -1.8437340895    1.2261119486
C        0.5059993122   -1.5484382682    3.4468808969
C        1.6785722610   -1.8369853468    5.7759070242
C        0.2884029452   -1.3316016465    6.0526236096
C        0.5535505448   -2.1592776595    4.8030137925
N        0.0242902079   -2.3393918272    2.4697992043
H        1.1842829827    1.2841712541    1.6775675108
H        0.2801877350   -0.2057314971   -0.1466263835
H        1.3193571186    0.3895799452    3.9950998039
H       -0.4386870173   -2.5183465161    0.4677728227
H        2.4309462274   -1.1247024141    5.4499482931
H        2.0639023073   -2.6531975236    6.3797212485
H       -0.2854033025   -1.7998050275    6.8468189568
H        0.0876116682   -0.2730257963    5.9158870527
H        0.1842115182   -3.1792517882    4.8105665633
