24   
torsion grid (-165,)
C        2.0278924843   -0.6521305818    0.2406151492
C        0.9700409633    0.2692934094    0.3688119407
C        3.2858624406   -0.3233710146    0.7256347391
C        1.1687302208    1.5044309732    0.9749332508
C        4.7917216090    1.3203332414    1.8661837778
C        3.5171607420    0.9229646515    1.3455037063
C        5.0233364262    2.5284011369    2.4690111982
C        2.4433296732    1.8387531052    1.4668887096
C        3.9131059835    3.5024789012    2.6054027900
C        6.3817844855    2.8078117063    2.9568071772
C        8.1595561106    3.9703221561    3.9112840214
N        6.7506837596    3.8774881867    3.5452572283
N        2.6930123807    3.0495143206    2.0756873452
O        3.9648716738    4.6146468632    3.1151154010
H        1.8567295681   -1.6129990444   -0.2353233429
H       -0.0160619727    0.0146012155   -0.0100347291
H        4.1114858997   -1.0251579497    0.6334587799
H        0.3482149039    2.2116441412    1.0710653054
H        5.6176484327    0.6157730751    1.7731337543
H        7.0865220437    1.9748989621    2.7711239805
H        8.2971840825    4.7844459571    4.6274816070
H        8.7541386000    4.2270841401    3.0239797568
H        8.5663958466    3.0388204633    4.3316817314
H        1.9387169703    3.7224751797    2.1736117367
24   
torsion grid (-150,)
C        2.0206539699   -0.6631922260    0.2587861725
C        0.9694673967    0.2681791636    0.3683595761
C        3.2775975748   -0.3378167403    0.7487704742
C        1.1732703524    1.5092089511    0.9606130653
C        4.7884197255    1.3082516375    1.8796800749
C        3.5144217528    0.9142000841    1.3549115525
C        5.0251429001    2.5218448187    2.4689802758
C        2.4469754188    1.8396603606    1.4574265221
C        3.9215719060    3.5057520877    2.5859447756
C        6.3826516933    2.7974424508    2.9622427739
C        8.1598368415    3.9688436306    3.9064960164
N        6.7568680315    3.8717521123    3.5383608971
N        2.7018383157    3.0559189560    2.0531144535
O        3.9785450569    4.6233517238    3.0833103348
H        1.8453214245   -1.6285119237   -0.2065203810
H       -0.0159337244    0.0165117484   -0.0143019012
H        4.0983913325   -1.0469794881    0.6711191901
H        0.3576067483    2.2238301784    1.0421914628
H        5.6095098501    0.5963322740    1.8010742313
H        7.0830409014    1.9572832753    2.7947108824
H        8.2595857925    4.5982120568    4.7958315221
H        8.6967694799    4.4898360893    3.1023708870
H        8.6539605014    2.9989716972    4.0763692645
H        1.9520193338    3.7356349087    2.1378014274
24   
torsion grid (-135,)
C        2.0112060066   -0.6668594177    0.2838755518
C        0.9643867134    0.2708528210    0.3802758847
C        3.2689881953   -0.3409298320    0.7713181901
C        1.1725943021    1.5185760262    0.9567322309
C        4.7858569761    1.3122538465    1.8828482606
C        3.5105075617    0.9177238222    1.3616135640
C        5.0272157754    2.5321139908    2.4568552745
C        2.4472367714    1.8493675340    1.4508597907
C        3.9282537923    3.5225946265    2.5595705956
C        6.3851272871    2.8072068778    2.9499064694
C        8.1578843846    3.9773195007    3.9038568119
N        6.7645884376    3.8874480148    3.5108555742
N        2.7069495879    3.0720397756    2.0312116881
O        3.9902999206    4.6463278492    3.0424288111
H        1.8319608176   -1.6372371789   -0.1692707015
H       -0.0216450244    0.0187308753   -0.0004335041
H        4.0866872631   -1.0546953756    0.7038719057
H        0.3600306038    2.2378261153    1.0280062356
H        5.6036665747    0.5955159829    1.8144959036
H        7.0829462088    1.9628561829    2.7941691088
H        8.2199648716    4.3920172077    4.9157712408
H        8.6599886704    4.6975119398    3.2451322138
H        8.7084023529    3.0225226955    3.8630222650
H        1.9603105828    3.7564030611    2.1060003887
24   
torsion grid (-120,)
C        2.0055864925   -0.6783118905    0.3076130225
C        0.9612298873    0.2633490106    0.3915076589
C        3.2647314528   -0.3517018035    0.7911109703
C        1.1743534919    1.5171919528    0.9526327799
C        4.7867978497    1.3099990133    1.8822365870
C        3.5101492224    0.9133808114    1.3657757994
C        5.0318944357    2.5359350969    2.4414384613
C        2.4500129587    1.8496652951    1.4430546342
C        3.9363491826    3.5313641283    2.5316857195
C        6.3901453117    2.8115913595    2.9335169986
C        8.1584341503    3.9750078512    3.9040856263
N        6.7744837918    3.8978782105    3.4789644663
N        2.7137665894    3.0785590301    2.0082414738
O        4.0020848743    4.6606860736    3.0008416609
H        1.8231462566   -1.6535903718   -0.1335278275
H       -0.0255356344    0.0098199133    0.0135888984
H        4.0798358346   -1.0692386157    0.7326248381
H        0.3644458746    2.2402565517    1.0148032161
H        5.6022428597    0.5897712347    1.8228652350
H        7.0857800776    1.9639265691    2.7864083323
H        8.1867131424    4.1534967267    4.9856384424
H        8.6288285185    4.8430578604    3.4278628841
H        8.7568090711    3.0757931782    3.6779212206
H        1.9694677806    3.7663690282    2.0742005633
24   
torsion grid (-105,)
C        1.9996444499   -0.6857957584    0.3311055273
C        0.9590181948    0.2609807945    0.4028741512
C        3.2589383666   -0.3565312692    0.8123555282
C        1.1750740695    1.5209738930    0.9489457813
C        4.7856344604    1.3132295429    1.8849533737
C        3.5082214428    0.9145263950    1.3720627812
C        5.0343156592    2.5449985388    2.4296957415
C        2.4512048841    1.8552702970    1.4368615394
C        3.9418266467    3.5449111583    2.5071874799
C        6.3924456564    2.8214448461    2.9213116803
C        8.1563982699    3.9800052307    3.9056923701
N        6.7801333830    3.9152691655    3.4491144582
N        2.7183604302    3.0899876635    1.9875412148
O        4.0106551685    4.6794447675    2.9630433397
H        1.8144707408   -1.6657392865   -0.0984529172
H       -0.0281905912    0.0062959034    0.0269424731
H        4.0718909539   -1.0772026957    0.7635397839
H        0.3673369358    2.2472453428    1.0013054777
H        5.5987647562    0.5896725441    1.8350847817
H        7.0851684632    1.9693624264    2.7854975927
H        8.1668444010    3.9138903605    5.0010463485
H        8.5853147494    4.9492045484    3.6320748122
H        8.8011743797    3.1758987606    3.5118621277
H        1.9762709270    3.7809912974    2.0444272056
24   
torsion grid (-90,)
C        2.0952307691   -0.4351283255   -0.1157035209
C        0.9761392589    0.2893087584    0.3395544519
C        3.3659149643   -0.0652026809    0.3018443337
C        1.1270536038    1.3696577800    1.2012634953
C        4.8353404297    1.4563934657    1.6415120128
C        3.5497678627    1.0269693218    1.1761813268
C        5.0213856968    2.5151940077    2.4903013553
C        2.4145062572    1.7454484967    1.6250924812
C        3.8457635606    3.2803857876    2.9721112382
C        6.3966898511    2.8460068767    2.8918219563
C        8.1458202903    3.9281183421    3.9838738351
N        6.7314437630    3.8018292458    3.6665337365
N        2.6179752108    2.8082890879    2.4783452746
O        3.8520153070    4.2438541156    3.7278525798
H        1.9611198092   -1.2766900735   -0.7886720951
H       -0.0204011276    0.0025830759    0.0147666152
H        4.2389985538   -0.6151743822   -0.0415118259
H        0.2589888393    1.9247705532    1.5490036741
H        5.7084995773    0.9037474840    1.2960105762
H        7.1525593649    2.1754662001    2.4404202168
H        8.3645820202    3.3383664270    4.8835107440
H        8.3846588700    4.9733981265    4.1983141053
H        8.8120266498    3.5636003831    3.1849254712
H        1.8192413352    3.3385630057    2.8134543504
24   
torsion grid (-75,)
C        2.0946298458   -0.4458984574   -0.0988076903
C        0.9769582588    0.2914920380    0.3388415410
C        3.3642750214   -0.0794596983    0.3248879367
C        1.1279559473    1.3809207396    1.1890311011
C        4.8329342919    1.4481766864    1.6587504877
C        3.5484861983    1.0217031843    1.1878317808
C        5.0187798584    2.5159908975    2.4964422095
C        2.4144934069    1.7529689874    1.6189257098
C        3.8448219711    3.2950351921    2.9601373441
C        6.3928728868    2.8428217486    2.9042436775
C        8.1480863449    3.9315513268    3.9804883012
N        6.7274788310    3.8057423750    3.6705011554
N        2.6184349690    2.8243093613    2.4612970400
O        3.8509984418    4.2670873518    3.7047289393
H        1.9602615756   -1.2944178986   -0.7629364859
H       -0.0188254376    0.0076400918    0.0092562044
H        4.2363937776   -0.6392493355   -0.0047752366
H        0.2608542854    1.9458694243    1.5230736999
H        5.7052926207    0.8858294997    1.3270995674
H        7.1462454493    2.1597474810    2.4673113174
H        8.4470175434    3.1609437449    4.7033149674
H        8.3418127611    4.9106674324    4.4247489604
H        8.7903902951    3.8131473835    3.0946941596
H        1.8204554337    3.3635506900    2.7836146846
24   
torsion grid (-60,)
C        2.0948863242   -0.4621352128   -0.0862193066
C        0.9786347111    0.2895842387    0.3302439486
C        3.3636074120   -0.1017780997    0.3453509652
C        1.1300654433    1.3883446989    1.1682085580
C        4.8308933137    1.4300434670    1.6751042662
C        3.5477164702    1.0087126035    1.1962486177
C        5.0174033292    2.5067219561    2.5012866144
C        2.4154630050    1.7546895148    1.6063621721
C        3.8453165012    3.3016166945    2.9424051121
C        6.3901492046    2.8281531035    2.9176483169
C        8.1508520659    3.9338026061    3.9668872010
N        6.7240431905    3.7932295489    3.6818294941
N        2.6199532891    2.8348309221    2.4372096317
O        3.8520514487    4.2833183476    3.6741432199
H        1.9600075365   -1.3178062107   -0.7409771464
H       -0.0160078089    0.0096983478   -0.0061311054
H        4.2341898026   -0.6730820447    0.0317148612
H        0.2644832385    1.9647281280    1.4862847862
H        5.7017114228    0.8561421935    1.3595750501
H        7.1415846128    2.1338783682    2.4953293853
H        8.5562270836    3.0386561098    4.4583301619
H        8.3056250392    4.7865880250    4.6321243122
H        8.7315659087    4.1056470334    3.0502082158
H        1.8234120975    3.3849381297    2.7443859828
24   
torsion grid (-45,)
C        2.0909571083   -0.4757234960   -0.0728883715
C        0.9789021609    0.2922262833    0.3247105959
C        3.3587054069   -0.1216690938    0.3666270925
C        1.1330295423    1.3995046102    1.1509536103
C        4.8290154570    1.4116233040    1.6919079258
C        3.5462574397    0.9970482603    1.2059711523
C        5.0180888118    2.4964294134    2.5066934817
C        2.4177362910    1.7588377616    1.5967734359
C        3.8501218044    3.3079601113    2.9276301880
C        6.3904105945    2.8113526158    2.9297929406
C        8.1511263346    3.9379216720    3.9563709389
N        6.7250195622    3.7802924876    3.6887155002
N        2.6250803574    2.8467913731    2.4167036459
O        3.8600625625    4.2982192555    3.6477940775
H        1.9537759555   -1.3378814514   -0.7186452937
H       -0.0153473641    0.0180919595   -0.0174327074
H        4.2266096797   -0.7049487678    0.0680553559
H        0.2701016054    1.9878481691    1.4540313590
H        5.6971284985    0.8256778147    1.3914317192
H        7.1397951136    2.1046101319    2.5251445530
H        8.6529608179    2.9886521879    4.1963839690
H        8.2831820401    4.6134791946    4.8057555095
H        8.6532013380    4.3913440091    3.0920209729
H        1.8310915000    3.4080401724    2.7100052401
24   
torsion grid (-30,)
C        2.0871712725   -0.4886043488   -0.0564971885
C        0.9774448398    0.2912970619    0.3239172276
C        3.3550933763   -0.1394049991    0.3865744115
C        1.1354716393    1.4070131753    1.1379428056
C        4.8278457273    1.3991965218    1.7033294905
C        3.5453970748    0.9878343930    1.2137009773
C        5.0190109126    2.4924428569    2.5060954110
C        2.4199185608    1.7622676876    1.5878604527
C        3.8545552408    3.3175065916    2.9098000209
C        6.3910806110    2.8032075228    2.9337756106
C        8.1509108708    3.9398178933    3.9500752159
N        6.7298044954    3.7780348191    3.6828623923
N        2.6299935448    2.8584424785    2.3961440979
O        3.8670361617    4.3161472498    3.6184373801
H        1.9479062721   -1.3573782482   -0.6928160132
H       -0.0165710056    0.0203008176   -0.0215002995
H        4.2203999510   -0.7327481072    0.1004876999
H        0.2752069775    2.0054398998    1.4285225451
H        5.6937749944    0.8036111253    1.4157931741
H        7.1384941874    2.0861150542    2.5443655201
H        8.7175230388    2.9948845918    3.9438582355
H        8.2785832778    4.4072278052    4.9313357564
H        8.5854430379    4.6223216371    3.2088756054
H        1.8380533052    3.4286082014    2.6774782487
24   
torsion grid (-15,)
C        2.0817193703   -0.5009888509   -0.0349904818
C        0.9748584574    0.2891396498    0.3323889306
C        3.3498814536   -0.1517611907    0.4073814708
C        1.1354270787    1.4145673716    1.1324453666
C        4.8262107598    1.3966470278    1.7083859906
C        3.5430870819    0.9851250338    1.2204909905
C        5.0204281574    2.4989665919    2.4976930768
C        2.4202427955    1.7695823571    1.5814255509
C        3.8586327207    3.3344813272    2.8869547512
C        6.3926948810    2.8080191459    2.9267320647
C        8.1496451380    3.9427805050    3.9501704073
N        6.7351268959    3.7900594245    3.6642210133
N        2.6331116040    2.8751864899    2.3761013316
O        3.8742247525    4.3423975263    3.5823713372
H        1.9401709719   -1.3772161608   -0.6605063677
H       -0.0194317337    0.0183501561   -0.0123729179
H        4.2132715003   -0.7526700026    0.1314931486
H        0.2770799121    2.0206055937    1.4127604236
H        5.6900194574    0.7932497370    1.4309752833
H        7.1389731835    2.0844389603    2.5476820055
H        8.7594782027    3.0534268853    3.7181940733
H        8.2740895891    4.1817789695    5.0119914359
H        8.5365545499    4.7997509728    3.3851058827
H        1.8431911520    3.4528580878    2.6476456512
24   
torsion grid (0,)
C        2.0790029006   -0.5175203758   -0.0159491261
C        0.9746430842    0.2814642224    0.3396035893
C        3.3472867317   -0.1671654610    0.4251513064
C        1.1368620741    1.4161486773    1.1261516912
C        4.8264704192    1.3916803043    1.7100801415
C        3.5427560094    0.9788966297    1.2247299961
C        5.0231203991    2.5026486765    2.4864677034
C        2.4220214045    1.7718220908    1.5735621929
C        3.8634014633    3.3466424688    2.8632735676
C        6.3953821304    2.8108926238    2.9164382775
C        8.1495289013    3.9376282514    3.9539550421
N        6.7409505596    3.8033739428    3.6381814069
N        2.6371877250    2.8862845229    2.3551680890
O        3.8812886696    4.3625312659    3.5469676107
H        1.9355656626   -1.4008109283   -0.6310321982
H       -0.0198516960    0.0100627901   -0.0040450143
H        4.2091861883   -0.7743908733    0.1586065386
H        0.2800025278    2.0285825353    1.3969990186
H        5.6886047088    0.7818348033    1.4417203220
H        7.1402501509    2.0806633952    2.5476866847
H        8.7912666997    3.1481705232    3.5266791805
H        8.2695838344    3.9401114530    5.0437465145
H        8.5019090671    4.9123457149    3.5963104781
H        1.8488537855    3.4700887642    2.6180859974
24   
torsion grid (15,)
C        2.0769830453   -0.5340945578    0.0036031657
C        0.9744852052    0.2728084912    0.3468195011
C        3.3450935155   -0.1816750744    0.4435454915
C        1.1385475429    1.4166467171    1.1196237565
C        4.8264514488    1.3886851106    1.7124318824
C        3.5426517229    0.9735480649    1.2293588036
C        5.0255610651    2.5083597691    2.4756459763
C        2.4236273972    1.7742029558    1.5657713015
C        3.8670087040    3.3597647322    2.8393737180
C        6.3975518254    2.8165597274    2.9064135640
C        8.1512308163    3.9315826444    3.9568144698
N        6.7460163725    3.8196423018    3.6120879517
N        2.6402694052    2.8976013605    2.3340394140
O        3.8861313441    4.3836369471    3.5109193587
H        1.9323133992   -1.4245226685   -0.6008213413
H       -0.0201093960    0.0003237585    0.0043262094
H        4.2057716353   -0.7947032716    0.1865446897
H        0.2829256369    2.0349683044    1.3808151774
H        5.6871979620    0.7728999375    1.4533987240
H        7.1402960954    2.0789725422    2.5479835050
H        8.8184296755    3.2844614078    3.3628920291
H        8.2763158383    3.6938289682    5.0204012401
H        8.4683433875    4.9719219044    3.8257074510
H        1.8531912814    3.4870335925    2.5880611360
24   
torsion grid (30,)
C        2.0754066405   -0.5482826167    0.0232759310
C        0.9743994545    0.2666532958    0.3520859355
C        3.3438039106   -0.1963478184    0.4627794229
C        1.1410361037    1.4192372756    1.1111823483
C        4.8268146116    1.3838514013    1.7171488030
C        3.5431017690    0.9678112990    1.2348319156
C        5.0270005286    2.5123941458    2.4671222415
C        2.4261051880    1.7770303725    1.5572650188
C        3.8711584443    3.3735096122    2.8166746423
C        6.3983493199    2.8198350367    2.8995840231
C        8.1520939376    3.9290123575    3.9562605281
N        6.7467630973    3.8326696030    3.5916668173
N        2.6448470442    2.9089692161    2.3121969329
O        3.8918379652    4.4055199999    3.4755341039
H        1.9291768268   -1.4455517065   -0.5705293385
H       -0.0200793328   -0.0061740701    0.0094772713
H        4.2027258361   -0.8161412840    0.2162853301
H        0.2872044269    2.0443650563    1.3617846010
H        5.6861756702    0.7616474803    1.4689902510
H        7.1387139719    2.0742776530    2.5524742623
H        8.8362537329    3.4685282688    3.2255915750
H        8.3070123600    3.4604403017    4.9362671670
H        8.4228947556    4.9844679392    4.0581620494
H        1.8591456608    3.5045151466    2.5559616457
24   
torsion grid (45,)
C        2.0764867845   -0.5671669316    0.0396484298
C        0.9775249599    0.2575419634    0.3504770064
C        3.3435967287   -0.2152218372    0.4827830814
C        1.1451547347    1.4193428714    1.0951731503
C        4.8265626993    1.3738378771    1.7253469934
C        3.5437630803    0.9582210611    1.2404741922
C        5.0277392123    2.5114252616    2.4614674758
C        2.4288933715    1.7773273482    1.5449562005
C        3.8740832869    3.3833938560    2.7913517213
C        6.3977319826    2.8177482782    2.8982184978
C        8.1568824103    3.9288651165    3.9440061665
N        6.7456253825    3.8358151154    3.5832481814
N        2.6482425028    2.9182835170    2.2859366833
O        3.8958528668    4.4246571333    3.4352740620
H        1.9297099093   -1.4716100857   -0.5430390240
H       -0.0161076371   -0.0149422028    0.0051474310
H        4.2010648903   -0.8423779202    0.2502504465
H        0.2927597292    2.0518188339    1.3317974949
H        5.6842094693    0.7438765396    1.4911578622
H        7.1354477472    2.0638258436    2.5632965379
H        8.8320537848    3.7020240864    3.1055368535
H        8.3845703695    3.2444655488    4.7713549764
H        8.3735185923    4.9441143317    4.2870771990
H        1.8641751802    3.5212995343    2.5162790123
24   
torsion grid (60,)
C        2.0731705544   -0.5749692546    0.0566203181
C        0.9780314318    0.2623183697    0.3466219968
C        3.3388584711   -0.2283125015    0.5079516879
C        1.1483576856    1.4314713345    1.0790928932
C        4.8226605310    1.3640976644    1.7469584795
C        3.5418420072    0.9523471382    1.2536120990
C        5.0263302864    2.5089601326    2.4711446312
C        2.4307312889    1.7839137213    1.5371153593
C        3.8765762213    3.3940133678    2.7791318112
C        6.3947493742    2.8109103790    2.9152536870
C        8.1570560488    3.9390781616    3.9374879115
N        6.7401965801    3.8342187256    3.5937305913
N        2.6525198732    2.9316772391    2.2667194734
O        3.9000464760    4.4427217028    3.4107589988
H        1.9245222696   -1.4851020975   -0.5166546513
H       -0.0144401539   -0.0060408031   -0.0052261956
H        4.1931591946   -0.8654025850    0.2913361539
H        0.2991411211    2.0738757028    1.2998781572
H        5.6774983537    0.7245579159    1.5291097024
H        7.1295081846    2.0456613170    2.5996794232
H        8.7901936599    3.9752153290    3.0403235446
H        8.4890869349    3.0896762550    4.5501389461
H        8.3248084224    4.8556206660    4.5081372207
H        1.8710142689    3.5434723156    2.4820778249
24   
torsion grid (75,)
C        2.0721836860   -0.5900654211    0.0697641643
C        0.9810964649    0.2598906496    0.3373052731
C        3.3355302406   -0.2480353629    0.5310948699
C        1.1528433127    1.4366283317    1.0572176865
C        4.8189959429    1.3467485730    1.7669479557
C        3.5401109903    0.9400442293    1.2643902432
C        5.0238758018    2.4987328214    2.4793131689
C        2.4329324812    1.7842077149    1.5252250872
C        3.8784165257    3.3973624820    2.7629609363
C        6.3900697690    2.7956900538    2.9337688426
C        8.1576018585    3.9417997357    3.9269649953
N        6.7381929760    3.8193391121    3.6099873616
N        2.6560587943    2.9391345566    2.2430506872
O        3.9039343362    4.4538021795    3.3815373787
H        1.9223141840   -1.5059872581   -0.4939053496
H       -0.0096187078   -0.0046202181   -0.0223093681
H        4.1868668950   -0.8947348650    0.3320328083
H        0.3065522412    2.0885990039    1.2605322873
H        5.6707545489    0.6974266187    1.5666039435
H        7.1219014997    2.0212130991    2.6342866495
H        8.7186455627    4.2535083796    3.0360484765
H        8.6001520211    2.9965110602    4.2759573986
H        8.2967492356    4.6999959699    4.7011006002
H        1.8774387491    3.5600974931    2.4420200473
24   
torsion grid (90,)
C        2.0663810301   -0.5983082266    0.0884755168
C        0.9799216385    0.2628231824    0.3385460252
C        3.3291385495   -0.2598361780    0.5539702901
C        1.1540980576    1.4472526749    1.0451148071
C        4.8150875783    1.3393846591    1.7802404613
C        3.5366137975    0.9357861800    1.2740408221
C        5.0233729293    2.4985213260    2.4796746046
C        2.4337503856    1.7908378911    1.5171212271
C        3.8827589087    3.4087983231    2.7445383327
C        6.3889925370    2.7918762338    2.9389437510
C        8.1559067704    3.9478891741    3.9212790129
N        6.7410578493    3.8196482807    3.6063668014
N        2.6606586311    2.9528202812    2.2223445710
O        3.9121836989    4.4727217937    3.3501468995
H        1.9135191484   -1.5199231391   -0.4650218686
H       -0.0101401813    0.0007354721   -0.0245763425
H        4.1772206953   -0.9148457953    0.3685979879
H        0.3110501000    2.1075288764    1.2347330779
H        5.6634477689    0.6815940786    1.5936217614
H        7.1181940515    2.0093665279    2.6548040348
H        8.6538822681    4.5022321735    3.1151414589
H        8.6759644373    2.9812382823    4.0230363153
H        8.2770308804    4.5170618501    4.8467626506
H        1.8852605943    3.5817352793    2.4084623379
24   
torsion grid (105,)
C        2.0594008190   -0.6065103105    0.1096492093
C        0.9759136712    0.2623473122    0.3454443898
C        3.3228973401   -0.2699128918    0.5745766494
C        1.1547915403    1.4540780944    1.0383979969
C        4.8131070893    1.3362891974    1.7861269890
C        3.5340379116    0.9331957243    1.2808867360
C        5.0249124749    2.5025874579    2.4722409110
C        2.4347958145    1.7966559100    1.5102099502
C        3.8882771850    3.4216869417    2.7227186368
C        6.3906085975    2.7940997668    2.9332548808
C        8.1554638138    3.9493324893    3.9199821121
N        6.7478345778    3.8286016482    3.5871240169
N        2.6655158152    2.9658663361    2.2021988902
O        3.9215493497    4.4925700367    3.3158776212
H        1.9034989855   -1.5338731686   -0.4332582877
H       -0.0143468568    0.0008935072   -0.0176460452
H        4.1680010703   -0.9316039536    0.3995332957
H        0.3147675301    2.1210678377    1.2176072781
H        5.6586733030    0.6720288166    1.6100609933
H        7.1173337146    2.0051815313    2.6615904803
H        8.6090053069    4.7014488768    3.2620315591
H        8.7278851602    3.0126766515    3.8084567973
H        8.2564914824    4.3103524240    4.9483982828
H        1.8927741455    3.6008821422    2.3783589705
24   
torsion grid (120,)
C        2.0534752434   -0.6214213289    0.1303668526
C        0.9739284054    0.2551612681    0.3553126259
C        3.3175633688   -0.2833126730    0.5925666270
C        1.1563735446    1.4546310303    1.0338807825
C        4.8135813340    1.3315989014    1.7856042950
C        3.5332126990    0.9273528814    1.2844882697
C        5.0294786559    2.5050677207    2.4579733939
C        2.4373151557    1.7979214666    1.5025577763
C        3.8962890697    3.4314503400    2.6966292848
C        6.3956691518    2.7958769685    2.9182911448
C        8.1565638238    3.9442101799    3.9198949195
N        6.7567138000    3.8379586629    3.5578338467
N        2.6721210384    2.9745337834    2.1805411299
O        3.9335647614    4.5092892796    3.2768828526
H        1.8943149094   -1.5546684729   -0.4014378229
H       -0.0171225254   -0.0066492859   -0.0053068709
H        4.1603278111   -0.9501976221    0.4262650241
H        0.3187026784    2.1268967138    1.2042225453
H        5.6566491564    0.6619882004    1.6180594611
H        7.1204144373    2.0023575089    2.6553782093
H        8.5743027528    4.8462526477    3.4570329495
H        8.7719405042    3.0771901688    3.6244391673
H        8.2338771615    4.0807432048    5.0048095281
H        1.9018037587    3.6147362229    2.3483470093
24   
torsion grid (135,)
C        2.0475165501   -0.6306967154    0.1544535181
C        0.9698576464    0.2511484089    0.3675670357
C        3.3126097523   -0.2911180864    0.6128584546
C        1.1562408183    1.4582065424    1.0314303021
C        4.8126766762    1.3343671138    1.7864915186
C        3.5314422855    0.9273590724    1.2898886419
C        5.0316633660    2.5153983441    2.4445492469
C        2.4379128073    1.8036478249    1.4965631193
C        3.9008277912    3.4476302150    2.6715642990
C        6.3980366627    2.8072585460    2.9034127289
C        8.1565522507    3.9457643081    3.9199929116
N        6.7634772618    3.8584380094    3.5255589050
N        2.6757678354    2.9878376510    2.1601278387
O        3.9405981074    4.5322037420    3.2389484684
H        1.8859744328   -1.5699781047   -0.3658572239
H       -0.0217821788   -0.0122473134    0.0096852025
H        4.1534008524   -0.9625636343    0.4550847412
H        0.3205986068    2.1351046476    1.1931031319
H        5.6539628146    0.6604355229    1.6275393461
H        7.1200612676    2.0079811836    2.6505538603
H        8.5362607564    4.9446492402    3.6794866365
H        8.8108927402    3.1838039537    3.4643139997
H        8.2164428124    3.8487295087    5.0116362113
H        1.9071532662    3.6321841325    2.3196661892
24   
torsion grid (150,)
C        2.0405507947   -0.6333811081    0.1782890959
C        0.9660091162    0.2554827577    0.3774922790
C        3.3052574884   -0.2934361602    0.6374981913
C        1.1558453614    1.4691323731    1.0282625574
C        4.8086713798    1.3390440891    1.7976180198
C        3.5274486847    0.9316556983    1.3014405039
C        5.0304352214    2.5267886288    2.4427616729
C        2.4370911492    1.8149994367    1.4943008989
C        3.9025296586    3.4657751538    2.6566559854
C        6.3962389945    2.8182228544    2.9027729601
C        8.1532137649    3.9531697925    3.9262264831
N        6.7638285212    3.8801650371    3.5054836616
N        2.6774865223    3.0056121137    2.1453084782
O        3.9443319972    4.5554465696    3.2139369511
H        1.8769594704   -1.5778926924   -0.3318236111
H       -0.0255697568   -0.0075650849    0.0191704413
H        4.1437323911   -0.9701572773    0.4903536145
H        0.3225604905    2.1513803508    1.1791699844
H        5.6477274981    0.6599831953    1.6490086970
H        7.1143493849    2.0104374349    2.6655870705
H        8.4802930567    4.9972061572    3.9210854206
H        8.8432405220    3.3411501675    3.3239694194
H        8.2210650293    3.6178399579    4.9701021700
H        1.9108478363    3.6545098372    2.2956490728
24   
torsion grid (165,)
C        2.0386076500   -0.6400401496    0.2024287218
C        0.9674212961    0.2570910421    0.3819020660
C        3.3020025696   -0.3006675187    0.6655490091
C        1.1585817063    1.4787484910    1.0170620007
C        4.8055268572    1.3398431940    1.8134175065
C        3.5256540669    0.9324644136    1.3139741160
C        5.0295549595    2.5351487758    2.4439025450
C        2.4385817559    1.8240219696    1.4869761778
C        3.9051449076    3.4831917563    2.6360562458
C        6.3934905653    2.8252322435    2.9096141623
C        8.1555725636    3.9600570576    3.9248453389
N        6.7600227552    3.8915453341    3.5056240048
N        2.6809455478    3.0222454037    2.1229540255
O        3.9488817145    4.5809188613    3.1768841508
H        1.8734189501   -1.5906263504   -0.2957383902
H       -0.0229714105   -0.0059264708    0.0203070328
H        4.1379045751   -0.9836967054    0.5336347829
H        0.3278431449    2.1672868902    1.1527289298
H        5.6418288681    0.6542313298    1.6801252625
H        7.1084902263    2.0110656984    2.6842896233
H        8.4106881575    4.9938395187    4.1716036595
H        8.8596489949    3.5777101339    3.1712317564
H        8.2930227409    3.3733842402    4.8433418495
H        1.9169647034    3.6775252506    2.2584855050
24   
torsion grid (180,)
C        2.0370039987   -0.6511374292    0.2189500196
C        0.9719738180    0.2581381193    0.3721976315
C        3.2966904369   -0.3155688989    0.6946504077
C        1.1637647409    1.4870563860    0.9930055153
C        4.7986278870    1.3270315946    1.8401598072
C        3.5218449648    0.9245405595    1.3291286057
C        5.0240362275    2.5291787536    2.4571230401
C        2.4403521059    1.8277006516    1.4753625469
C        3.9059161513    3.4899573586    2.6212089386
C        6.3845394810    2.8147765472    2.9349832787
C        8.1576642209    3.9630405696    3.9167024147
N        6.7513642498    3.8843901616    3.5251439000
N        2.6845887808    3.0324099183    2.0981526188
O        3.9518841307    4.5941249253    3.1484722372
H        1.8701758112   -1.6070414186   -0.2684105235
H       -0.0156512851   -0.0015421521    0.0008170098
H        4.1285571222   -1.0071786030    0.5836140143
H        0.3369930129    2.1841290224    1.1078529178
H        5.6306264666    0.6324898005    1.7275253124
H        7.0940255458    1.9899881183    2.7315520003
H        8.3444048608    4.9202828220    4.4091335630
H        8.8251717521    3.8894995573    3.0471750118
H        8.4289508392    3.1606847797    4.6166004153
H        1.9245625579    3.6958727908    2.2148084013
