28   
torsion grid (-165,)
C        1.0370420225   -3.4201117898   -1.6982822569
C        0.1286439143    2.3926402174    2.1807517218
C        0.2520834702    1.5815921157    1.0350390335
C        1.4497303372   -3.9708008770   -2.9056830835
C       -1.2144168523   -0.1334810237    2.0082061499
C        1.0562089618   -1.8261775726   -3.9863742683
C        0.6237151428   -2.0795672656   -1.5893620392
C       -0.6584726279    1.9103167285    3.2088300966
C       -1.3121383240    0.6798386475    3.1207436956
C       -0.4027345227    0.3553659609    0.9688117060
C        0.6465173130   -1.3063116657   -2.7609214507
C        1.4536842978   -3.1605440719   -4.0460947960
C        0.2213381926   -1.6122191021   -0.2307876390
C       -1.6475390570    1.5019742874    5.1733876922
O        0.3427476325   -2.2929054280    0.7681368917
O       -0.9684375378    2.5128199234    4.4111998971
O       -2.0532941667    0.4661269633    4.2626178713
O       -0.2757187079   -0.3464647347   -0.2405158253
F        0.2802971698   -0.0107454760   -2.7554741249
Cl       1.9679292687   -3.8266476760   -5.5782883714
H        1.0271303995   -4.0214976841   -0.7951904589
H        0.6267835622    3.3539710722    2.2500623120
H        0.8521408372    1.9033426901    0.1903984408
H        1.7635041826   -5.0071483177   -2.9685422332
H       -1.7166995824   -1.0902459366    1.9433314325
H        1.0594601543   -1.1887262401   -4.8637422520
H       -0.9564770892    1.0804501935    5.9162269337
H       -2.5320400062    1.9359320190    5.6436914525
28   
torsion grid (-150,)
C        0.8167369052   -3.4998426103   -1.7381903906
C       -0.0444426622    2.3985039632    1.9483493375
C       -0.0361022428    1.5279564073    0.8415019560
C        1.3974495313   -3.9740254301   -2.9081864585
C       -1.2479672334   -0.1987231821    2.1033546574
C        1.3804302412   -1.7110207749   -3.8008261395
C        0.4955642543   -2.1416456672   -1.5581140175
C       -0.6471393099    1.9391345931    3.1044620826
C       -1.2323741176    0.6747515187    3.1750070903
C       -0.6191653344    0.2656709875    0.9331151314
C        0.7943556970   -1.2696650470   -2.6169925196
C        1.6742082331   -3.0665668016   -3.9364936754
C       -0.1009456804   -1.7586892214   -0.2460891020
C       -1.3287855999    1.6020355744    5.2085286301
O       -0.1145312013   -2.5002171066    0.7161758445
O       -0.8193922368    2.5970221177    4.3056271185
O       -1.7924290205    0.4923190773    4.4211263444
O       -0.6008293545   -0.4927634323   -0.2471924104
F        0.5465058830    0.0520480227   -2.5325420734
Cl       2.4060347276   -3.6348495936   -5.4185843907
H        0.5976932853   -4.1786080872   -0.9204150750
H        0.4009143301    3.3864302257    1.8948639234
H        0.4201628778    1.8256356290   -0.0964288327
H        1.6343308170   -5.0256941452   -3.0277030875
H       -1.7013746745   -1.1791959863    2.1596705138
H        1.5983997305   -0.9978321988   -4.5881986167
H       -0.5201171756    1.2634468945    5.8707309175
H       -2.1654601004    2.0191274142    5.7725047687
28   
torsion grid (-135,)
C       -2.4916911982   -2.6155693222   -2.0773512423
C        0.4470958462    0.5534250432    3.3383678865
C        0.3542946615    0.0320582031    2.0336973243
C       -2.3380061800   -3.8323311870   -2.7299334159
C       -1.7139977822    1.2908029648    1.6022310714
C       -0.0760420923   -3.9881460729   -1.8480534618
C       -1.4635545180   -2.0457491638   -1.3025367500
C       -0.5482390611    1.4251861650    3.7384649259
C       -1.5976653180    1.7793907508    2.8908277451
C       -0.7045575132    0.3936505381    1.2020289873
C       -0.2608428229   -2.7643831525   -1.2095281792
C       -1.1204566559   -4.5111480816   -2.6082507171
C       -1.7652706074   -0.7500098329   -0.6304295344
C       -1.7793213796    2.9842372490    4.7674189393
O       -2.8879172977   -0.2907008893   -0.5616259282
O       -0.7128121144    2.0417772726    4.9629264133
O       -2.4565870552    2.6335188283    3.5487480600
O       -0.6641322408   -0.1543984099   -0.0888309706
F        0.7769821869   -2.3135682450   -0.4772831281
Cl      -0.8999269176   -6.0440766216   -3.4177372056
H       -3.4266696950   -2.0694391388   -2.1479311840
H        1.2606360208    0.2776006339    4.0012680124
H        1.1024249178   -0.6556528146    1.6557992821
H       -3.1423395145   -4.2532477927   -3.3234633896
H       -2.5276523672    1.5652336432    0.9447231430
H        0.8688820984   -4.5095076492   -1.7414698590
H       -2.4797779998    2.9168889501    5.6022816059
H       -1.3590325705    3.9947256991    4.6697357598
28   
torsion grid (-120,)
C       -2.4571016711   -2.4824511773   -2.1068994848
C        0.5739344362    0.6431279916    3.1675864376
C        0.5150152564    0.2156825856    1.8271050896
C       -2.3875901723   -3.7892604570   -2.5721083026
C       -1.7043990082    1.2322792233    1.5306409839
C       -0.1985345494   -4.0135357526   -1.5332433443
C       -1.4211936182   -1.8993350878   -1.3513838492
C       -0.5131239544    1.3439839107    3.6543608319
C       -1.6202048864    1.6248265052    2.8542824950
C       -0.6010508154    0.5043696761    1.0430301463
C       -0.2984772086   -2.6992131990   -1.0838680966
C       -1.2485376095   -4.5474917394   -2.2777229367
C       -1.6291884232   -0.4992095158   -0.8868479288
C       -1.9023436142    2.6509129419    4.8221067586
O       -2.6841218144    0.0867973311   -1.0220232579
O       -0.7237733718    1.8372028866    4.9276453326
O       -2.5629359340    2.3088678710    3.5913374397
O       -0.5343266257    0.0586104302   -0.2847270029
F        0.7418689485   -2.2376883519   -0.3631963274
Cl      -1.1348978633   -6.1944502425   -2.8491150226
H       -3.3290692400   -1.8714075658   -2.3156237318
H        1.4327947122    0.4222619491    3.7928804270
H        1.3314629301   -0.3446854793    1.3866352437
H       -3.1966388591   -4.2195311530   -3.1524094622
H       -2.5563195637    1.4659220107    0.9055592321
H        0.6866303367   -4.5937127913   -1.2967476376
H       -2.5676848468    2.4359067643    5.6606762496
H       -1.6128582403    3.7105484158    4.7939631664
28   
torsion grid (-105,)
C       -2.3923868822   -2.3312791761   -2.1793349809
C        0.7822259972    0.7898821108    2.9761523758
C        0.7609394561    0.4443675380    1.6112523861
C       -2.4511577957   -3.6870761575   -2.4732924940
C       -1.6297509914    0.9829552474    1.4445082086
C       -0.4280890239   -4.0320225871   -1.1640733429
C       -1.3677496779   -1.7816164927   -1.3839161837
C       -0.4068776755    1.2111536694    3.5400059654
C       -1.5786852480    1.3002035111    2.7901005904
C       -0.4192246508    0.5409086071    0.8758967694
C       -0.3957248526   -2.6670348179   -0.8908309177
C       -1.4595327700   -4.5303320992   -1.9576561414
C       -1.4202411449   -0.3168107606   -1.1250942608
C       -1.9896591029    2.1239242813    4.8268437705
O       -2.3460999720    0.3813291561   -1.4793690117
O       -0.6693862820    1.5618088869    4.8519113500
O       -2.6153474973    1.7176579951    3.5966218598
O       -0.3227040834    0.1974835186   -0.4768581889
F        0.6158181570   -2.2375595967   -0.1137514990
Cl      -1.5121605170   -6.2401981612   -2.3098772525
H       -3.1483913756   -1.6533911287   -2.5617776796
H        1.6928289480    0.7157594313    3.5616449581
H        1.6585500546    0.0944397240    1.1141743750
H       -3.2471565793   -4.0915164612   -3.0890973589
H       -2.5375102064    1.0881166058    0.8632521844
H        0.3423855766   -4.6775054181   -0.7569362446
H       -2.5654803866    1.7362870026    5.6693558424
H       -1.9211390338    3.2205584643    4.8503306769
28   
torsion grid (-90,)
C       -0.4858740489    2.9330206112   -2.6211247612
C        0.1624016366    2.1875695592    3.1029942674
C        0.2647947815    1.8031923378    1.7481389696
C       -1.3520012100    3.7915695465   -3.2854038370
C       -1.2782075265   -0.0702870049    2.1156807792
C       -3.2038597750    2.8826739204   -1.9934466034
C       -0.9346128407    2.0331213868   -1.6346677376
C       -0.6486588080    1.4303012325    3.9221394935
C       -1.3479431382    0.3246429860    3.4363359819
C       -0.4482886699    0.7004270915    1.2790302183
C       -2.3090683715    2.0349867994   -1.3462514295
C       -2.7134940822    3.7578463960   -2.9607420589
C        0.0882693972    1.1627962509   -0.9916816158
C       -1.8181591318    0.5393975303    5.6261112823
O        1.2548930206    1.1654546615   -1.3131321237
O       -0.9085378367    1.5918832724    5.2690930751
O       -2.0762885866   -0.2515015901    4.4502123717
O       -0.3889970661    0.2776349524   -0.0465947505
F       -2.8314165817    1.2082380521   -0.4217494086
Cl      -3.8236085941    4.8297113294   -3.7788890795
H        0.5743042916    2.9362373350   -2.8522454977
H        0.7120545794    3.0418608946    3.4843167270
H        0.9208951525    2.3567235893    1.0859044806
H       -0.9870393786    4.4779244113   -4.0418256462
H       -1.8314538386   -0.9159112842    1.7236807671
H       -4.2566731803    2.8471145045   -1.7358480752
H       -1.3586464742   -0.0949156734    6.3917682633
H       -2.7593886524    0.9751063529    5.9789692551
28   
torsion grid (-75,)
C       -0.4638895397    2.9562789464   -2.4586462717
C        0.1378091175    2.2647513908    2.9140231005
C        0.3033370433    1.7799868591    1.5987694837
C       -1.3525724899    3.8845191217   -2.9866327582
C       -1.2263861898   -0.0889734382    2.0396722533
C       -3.1736403306    2.7665268725   -1.8210092950
C       -0.8851678353    1.9237393350   -1.5995920909
C       -0.6965608637    1.5546253274    3.7523619125
C       -1.3572941681    0.4023895104    3.3227181701
C       -0.3733943057    0.6332790558    1.1835816325
C       -2.2554320221    1.8562359419   -1.3060282051
C       -2.7088634440    3.7804123657   -2.6569644401
C        0.1590847270    0.9839589841   -1.0993356448
C       -1.9203976701    0.7694421864    5.4701015767
O        1.2661825300    0.9148748392   -1.5822791648
O       -1.0153041044    1.8111302362    5.0707117608
O       -2.1188041416   -0.1094107088    4.3464269993
O       -0.2258288407    0.1144839133   -0.1001330960
F       -2.7504849712    0.8825716495   -0.5180870595
Cl      -3.8463301977    4.9366446737   -3.3060818124
H        0.5923305793    3.0094841376   -2.7016596245
H        0.6580991805    3.1543954654    3.2532689951
H        0.9801014831    2.2914949258    0.9227581851
H       -1.0082765438    4.6770935484   -3.6421999274
H       -1.7497896833   -0.9711470540    1.6896654147
H       -4.2238885342    2.6693586231   -1.5687717870
H       -1.4799234671    0.2020072020    6.2969417148
H       -2.8816254289    1.2112600935    5.7543889876
28   
torsion grid (-60,)
C       -0.4452096122    2.9679922837   -2.3131031229
C        0.1093252998    2.3196716113    2.7660986547
C        0.3403842195    1.7716710751    1.4868753734
C       -1.3479000677    3.9487322637   -2.7089023651
C       -1.1720429164   -0.1038550646    1.9567231245
C       -3.1426989258    2.6913682146   -1.6488279829
C       -0.8471626375    1.8460102846   -1.5674886904
C       -0.7487652482    1.6353194870    3.6029808374
C       -1.3681378678    0.4487853020    3.2062847558
C       -0.2984871352    0.5934879342    1.1017259282
C       -2.2098166294    1.7349071952   -1.2616649718
C       -2.6963931424    3.8003791290   -2.3665297968
C        0.2020373742    0.8458811780   -1.2062756673
C       -2.0310755344    0.9132845285    5.3056607320
O        1.2175662813    0.7052295623   -1.8485280691
O       -1.1283997697    1.9517339764    4.8908364153
O       -2.1623437890   -0.0267713876    4.2225353258
O       -0.0670186323    0.0137366413   -0.1443326582
F       -2.6788177590    0.6604201440   -0.5956926002
Cl      -3.8507657346    5.0189628628   -2.8534683130
H        0.6044646571    3.0530904075   -2.5754384428
H        0.5982825096    3.2352879535    3.0818900288
H        1.0354176234    2.2606465066    0.8123088227
H       -1.0192750197    4.8139453655   -3.2744728875
H       -1.6624388725   -1.0136637892    1.6307376703
H       -4.1885110226    2.5561226936   -1.3956833919
H       -1.6170787132    0.3996405381    6.1798506991
H       -3.0118708556    1.3495268283    5.5238393672
28   
torsion grid (-45,)
C       -0.4220928822    2.8833517419   -2.2418484646
C        0.1241068832    2.3660721401    2.6334962398
C        0.4167356242    1.7682171797    1.3905832075
C       -1.3391375471    3.8898410622   -2.5291858315
C       -1.0385163005   -0.1410021695    1.9016584036
C       -3.0923890621    2.5606325058   -1.4888383403
C       -0.7966248093    1.7173184160   -1.5551392405
C       -0.7362988205    1.6884883118    3.4745151261
C       -1.2976610277    0.4617380366    3.1164469606
C       -0.1668484286    0.5511048060    1.0417951275
C       -2.1450714543    1.5822781478   -1.2084956378
C       -2.6724523642    3.7189869617   -2.1424645004
C        0.2546190713    0.6821356997   -1.3044665989
C       -2.0575459394    1.0052627335    5.1630950515
O        1.1534867861    0.4669601034   -2.0851438105
O       -1.1668916735    2.0487437696    4.7336024326
O       -2.1047426381    0.0029178546    4.1303654441
O        0.1414404377   -0.0756270610   -0.1665420870
F       -2.5802756924    0.4536098995   -0.6095063420
Cl      -3.8432854702    4.9686819787   -2.4956076582
H        0.6149133429    2.9872940381   -2.5452696259
H        0.5681101642    3.3133230459    2.9209674728
H        1.1113823472    2.2517590939    0.7117481084
H       -1.0320643760    4.7917516069   -3.0475901376
H       -1.4828761440   -1.0837815182    1.6048280780
H       -4.1282335897    2.4052535807   -1.2077626683
H       -1.6723371674    0.5556696426    6.0840623891
H       -3.0610343971    1.4204185746    5.3081107953
28   
torsion grid (-30,)
C       -0.4158762717    2.8641895855   -2.1911635347
C        0.0539442643    2.4486268085    2.5728259124
C        0.4040040029    1.8308073947    1.3553526030
C       -1.3151758748    3.9053300623   -2.4070650865
C       -0.9923679948   -0.1192067235    1.8738191782
C       -3.0717596522    2.5806427558   -1.3635624043
C       -0.8027198227    1.6862422692   -1.5353864937
C       -0.8059863276    1.7595069444    3.4057860954
C       -1.3103182599    0.5037729853    3.0644492523
C       -0.1247935372    0.5854092948    1.0212520960
C       -2.1416188148    1.5694440833   -1.1543111826
C       -2.6390301100    3.7534585154   -1.9831040377
C        0.2170389742    0.6024745055   -1.3576362188
C       -2.1416350815    1.0645875889    5.0783530216
O        0.9883139186    0.2893271524   -2.2351539497
O       -1.2876813012    2.1356479936    4.6408690014
O       -2.1299142825    0.0405241845    4.0662271600
O        0.2531828883   -0.0595671930   -0.1597802008
F       -2.5790043962    0.4219702396   -0.5907203895
Cl      -3.7854405362    5.0474786545   -2.2483870452
H        0.6124075656    2.9543316133   -2.5274626898
H        0.4530189953    3.4191882185    2.8481065816
H        1.0963810757    2.3230475513    0.6806853826
H       -1.0009783768    4.8186600981   -2.9006365924
H       -1.3906403526   -1.0862874572    1.5900385746
H       -4.1026581951    2.4403195575   -1.0574488686
H       -1.7533897102    0.6504521608    6.0147125052
H       -3.1634062201    1.4405945264    5.1985599167
28   
torsion grid (-15,)
C       -0.4028121277    2.8252972513   -2.1800961251
C       -0.0028099235    2.5310838793    2.5300421042
C        0.4019220952    1.9076731586    1.3328760915
C       -1.2797190482    3.8940873963   -2.3544624150
C       -0.9116018614   -0.0965909969    1.8600940900
C       -3.0421371839    2.6047797329   -1.2768532055
C       -0.8050814185    1.6519820381   -1.5276437496
C       -0.8488645714    1.8176656640    3.3573926743
C       -1.2858889649    0.5332251933    3.0308868957
C       -0.0611877300    0.6334346320    1.0122927656
C       -2.1338449618    1.5666131561   -1.1103479074
C       -2.5939985604    3.7737555784   -1.8932407955
C        0.1817281401    0.5300151837   -1.3888465376
C       -2.1904043690    1.0938721889    5.0129292771
O        0.8231951068    0.1129593224   -2.3249986411
O       -1.3752623228    2.1943442857    4.5734725348
O       -2.1039488919    0.0503648417    4.0246971559
O        0.3791870906   -0.0124097721   -0.1488787846
F       -2.5790457165    0.4201759045   -0.5482809834
Cl      -3.7102489217    5.1037849166   -2.1074117254
H        0.6167204483    2.8937283556   -2.5470928000
H        0.3432759507    3.5247005068    2.7944969185
H        1.0812824571    2.4192564693    0.6595791812
H       -0.9547791801    4.8047420481   -2.8460133382
H       -1.2561073989   -1.0875348575    1.5883297250
H       -4.0670454507    2.4890021777   -0.9417226068
H       -1.8086607884    0.7185571248    5.9680368714
H       -3.2312827599    1.4243756088    5.0981461433
28   
torsion grid (0,)
C       -1.6633530599   -2.7003762861    0.2929768413
C        0.9405105493    1.2145700559    3.3124845906
C        1.2230804412    0.7023715790    2.0305717347
C       -2.2856838590   -3.5403082065    1.2159086956
C       -1.1625833654    0.6647312987    1.4545164381
C       -0.2739015520   -3.5031886290    2.5873680581
C       -0.3637367893   -2.2256360598    0.5073645086
C       -0.3882329034    1.4253287272    3.6286711293
C       -1.4129885861    1.1582185994    2.7200666429
C        0.1896521272    0.4298891176    1.1417350658
C        0.3077164472   -2.6602021913    1.6484778182
C       -1.5836403255   -3.9284005084    2.3603966647
C        0.2716479139   -1.3223227016   -0.5123975083
C       -2.3458612807    1.9525959432    4.6065951254
O        0.5044579742   -1.6715065061   -1.6444401726
O       -0.9220710601    1.9086657201    4.8029402942
O       -2.6300675942    1.4627644595    3.2821831383
O        0.5194081147   -0.0283077832   -0.1427553410
F        1.5871955579   -2.2674348272    1.8468137176
Cl      -2.3506676756   -4.9808419158    3.5299164316
H       -2.1930753885   -2.3992558545   -0.6059197440
H        1.7324904906    1.4305199028    4.0218216903
H        2.2452483481    0.5054471067    1.7273982739
H       -3.2979126049   -3.8930185426    1.0502492377
H       -1.9554983623    0.4677593238    0.7417907877
H        0.2889358482   -3.8176073490    3.4594354836
H       -2.8338306653    1.3050251792    5.3424651537
H       -2.6922806055    2.9882698452    4.6897788261
28   
torsion grid (15,)
C        2.9806457796   -1.9079241779    0.0305900011
C        0.9492482900    1.0759102143    3.0975547939
C        1.2615600891    0.9171124541    1.7326664847
C        3.3115892255   -3.0011358999    0.8287354883
C       -1.1150463732    0.7580153294    1.1438633898
C        0.9435942766   -3.4171806171    1.2150323293
C        1.6465537572   -1.5247380183   -0.1632094466
C       -0.3888072850    1.0738334885    3.4423373827
C       -1.3942224662    0.9246316756    2.4861743335
C        0.2460108821    0.7477402587    0.7941115509
C        0.6552750358   -2.3125806767    0.4230530867
C        2.2848326575   -3.7433407789    1.4198723316
C        1.3559008810   -0.3493665774   -1.0497037468
C       -2.3747438601    1.1535724718    4.4979797040
O        1.8328462235   -0.2391342006   -2.1552255340
O       -0.9509923254    1.2164765494    4.6919059874
O       -2.6271650669    0.9661985720    3.0929168961
O        0.5469842135    0.6432204574   -0.5689206666
F       -0.6448566542   -2.0204957430    0.1933370214
Cl       2.6812875576   -5.1217985433    2.4216334696
H        3.7636390195   -1.3299678838   -0.4507632652
H        1.7263949926    1.2036989625    3.8436767531
H        2.2968963601    0.9319535082    1.4095043973
H        4.3477515741   -3.2804155900    0.9864386598
H       -1.8862114828    0.6258735294    0.3939640593
H        0.1382015011   -4.0030602891    1.6442633990
H       -2.7793241249    0.3009858026    5.0536577018
H       -2.8272431432    2.0963445232    4.8232377113
28   
torsion grid (30,)
C        3.0047546944   -1.9357989316    0.0519498290
C        0.9055809698    1.1686305599    3.0595188415
C        1.1994688255    0.9536918456    1.6979349463
C        3.3215799649   -3.0611685469    0.8085731573
C       -1.1822718676    0.7101799038    1.1600219261
C        0.9468597502   -3.4806160417    1.1463651241
C        1.6747175851   -1.5371616304   -0.1464632971
C       -0.4256641089    1.1523752777    3.4278980756
C       -1.4427325097    0.9342278530    2.4974655501
C        0.1726800833    0.7173225097    0.7857446419
C        0.6713718633   -2.3434131211    0.3964692437
C        2.2834367003   -3.8218462770    1.3554095982
C        1.4126922793   -0.3258851257   -0.9891828383
C       -2.3952486071    1.2335963967    4.5135576386
O        2.0101982666   -0.1121202620   -2.0188691844
O       -0.9709662934    1.3424109710    4.6790867113
O       -2.6661217844    0.9751865788    3.1232008501
O        0.4474522591    0.5522138657   -0.5747410863
F       -0.6257084618   -2.0439574178    0.1651322020
Cl       2.6597087656   -5.2413229912    2.3054641007
H        3.7946283505   -1.3406988355   -0.3958677212
H        1.6919390270    1.3505647540    3.7844802364
H        2.2291346405    0.9829524758    1.3576497498
H        4.3544018337   -3.3508864092    0.9693440424
H       -1.9620127012    0.5227422273    0.4311389692
H        0.1334138343   -4.0797572769    1.5406797048
H       -2.7678654198    0.3972549829    5.1145661414
H       -2.8674972700    2.1782120198    4.8034097848
28   
torsion grid (45,)
C        3.0372730581   -1.9735697352    0.0305101256
C        0.8600023256    1.2804998858    3.0314213801
C        1.1467252395    1.0011684818    1.6795185693
C        3.3510389161   -3.1422166330    0.7177983171
C       -1.2361055868    0.6928034079    1.1784231228
C        0.9763675449   -3.5608898022    1.0478430987
C        1.7089455141   -1.5524622504   -0.1418352060
C       -0.4668784125    1.2635491174    3.4133177217
C       -1.4882989807    0.9819046545    2.5047008368
C        0.1154794543    0.7044142935    0.7895411300
C        0.7024206601   -2.3805167495    0.3660512071
C        2.3104989163   -3.9260404540    1.2270819412
C        1.4667545320   -0.2904001701   -0.9086789162
C       -2.4277790800    1.3652801799    4.5128187405
O        2.1629225838    0.0485020962   -1.8383015976
O       -1.0048885301    1.5095321178    4.6585082655
O       -2.7067005215    1.0354987458    3.1391555158
O        0.3757971029    0.4650376814   -0.5606245527
F       -0.5956731691   -2.0658946255    0.1709839783
Cl       2.6803384483   -5.4003276642    2.0913613977
H        3.8273799994   -1.3569508350   -0.3863409484
H        1.6498996723    1.5117864917    3.7382667716
H        2.1732904744    1.0337288127    1.3298443075
H        4.3827012118   -3.4473750611    0.8557539827
H       -2.0189506575    0.4540175101    0.4681208657
H        0.1605820859   -4.1739411423    1.4149687338
H       -2.7784184720    0.5515028426    5.1567139472
H       -2.9162164590    2.3132045354    4.7621259404
28   
torsion grid (60,)
C        3.0921842352   -2.0595584931    0.0226427596
C        0.7670628055    1.3549693370    3.0986024476
C        1.0625421607    0.9943198830    1.7671657837
C        3.4404906634   -3.2716216261    0.6082516924
C       -1.3147683752    0.6208509704    1.2826519737
C        1.0840068901   -3.7231014311    1.0197315093
C        1.7551195144   -1.6342253827   -0.0650854262
C       -0.5599044777    1.3447132286    3.4781844014
C       -1.5744290522    0.9912852283    2.5867359884
C        0.0378727712    0.6295488606    0.8944626160
C        0.7735854722   -2.4993134989    0.4358179839
C        2.4250754547   -4.0945991889    1.1075538489
C        1.4910334107   -0.3208687461   -0.7260551024
C       -2.5262290058    1.4935488619    4.5627117287
O        2.2435213906    0.1620131570   -1.5410097085
O       -1.1060041936    1.6610573564    4.7047717736
O       -2.7954327176    1.0671910517    3.2136967099
O        0.2970269982    0.2968795760   -0.4339005139
F       -0.5338158366   -2.1841072611    0.3391385784
Cl       2.8371999056   -5.6235735564    1.8471558921
H        3.8594157763   -1.4076967819   -0.3827088226
H        1.5520391916    1.6414559784    3.7906240642
H        2.0899797421    1.0237719732    1.4197284302
H        4.4780816419   -3.5798798175    0.6778199195
H       -2.0920691773    0.3256860664    0.5875341509
H        0.2876600484   -4.3622289063    1.3850302425
H       -2.8730222930    0.7226663598    5.2592368761
H       -3.0251976015    2.4516036131    4.7437808472
28   
torsion grid (75,)
C        3.1588435480   -2.1436531335   -0.0689180243
C        0.6776370605    1.4817241358    3.1563443764
C        1.0035598248    1.0292538795    1.8596836224
C        3.5365486721   -3.3996287740    0.3893591239
C       -1.3629634992    0.6173205657    1.3523639536
C        1.2163152323   -3.8602126342    0.9632998113
C        1.8233435414   -1.7013559466   -0.0200734773
C       -0.6564342198    1.4958415387    3.5074917833
C       -1.6506520974    1.0773736935    2.6213645789
C       -0.0021346042    0.6045627044    0.9916455111
C        0.8734960382   -2.5934889082    0.4998133601
C        2.5532894576   -4.2503383822    0.9075583017
C        1.5376448927   -0.3353666695   -0.5458020977
C       -2.6461509340    1.7141316345    4.5362112126
O        2.3252652594    0.2862341401   -1.2217544002
O       -1.2302220500    1.8955339181    4.6976448910
O       -2.8851007804    1.1920156000    3.2153376733
O        0.2760587112    0.1652523898   -0.3000556811
F       -0.4315236594   -2.2651775531    0.5552806115
Cl       3.0027905328   -5.8339951970    1.4923877136
H        3.8990434048   -1.4654814796   -0.4808383556
H        1.4477674947    1.8167729802    3.8432906132
H        2.0387217796    1.0388447204    1.5356661174
H        4.5718313260   -3.7206626854    0.3492557773
H       -2.1249189928    0.2715569018    0.6634841245
H        0.4446840333   -4.5158694711    1.3516097593
H       -3.0079035272    0.9937287663    5.2778022660
H       -3.1507719710    2.6810696240    4.6373428748
28   
torsion grid (90,)
C        3.1772594264   -2.2502983391   -0.2108320326
C        0.5592108966    1.6192395076    3.2412238929
C        0.9293294936    1.0684077859    1.9948330503
C        3.5760213431   -3.5452100710    0.0936908941
C       -1.4197319492    0.6148973974    1.4457774044
C        1.3325368163   -4.0167368740    0.9120250189
C        1.8662403827   -1.7948235769    0.0301330103
C       -0.7847468484    1.6579012327    3.5486449936
C       -1.7490726566    1.1695790713    2.6659734923
C       -0.0480773104    0.5776503833    1.1296968721
C        0.9650023013   -2.7119818996    0.5948193304
C        2.6415172056   -4.4218392735    0.6579976855
C        1.5571904627   -0.3854907835   -0.3378256816
C       -2.8066576230    1.9478301869    4.4932233013
O        2.3580151168    0.3496986175   -0.8693500305
O       -1.3973699764    2.1453204355    4.6866665164
O       -3.0025164616    1.3251737629    3.2091233054
O        0.2581911433    0.0206038262   -0.1094465059
F       -0.3096193296   -2.3695056833    0.8577114934
Cl       3.1181669097   -6.0548690584    1.0537249345
H        3.8793083203   -1.5488701228   -0.6496162484
H        1.3073439020    2.0067842370    3.9249176854
H        1.9748576676    1.0549784466    1.7082947022
H        4.5905191853   -3.8771424229   -0.0988574559
H       -2.1591798296    0.2157586958    0.7611309792
H        0.6005213029   -4.6883371781    1.3469325771
H       -3.1925316705    1.2852855697    5.2755847389
H       -3.3152225153    2.9180386048    4.5032560919
28   
torsion grid (105,)
C       -2.0154803936   -3.1736017752   -1.1558975132
C       -0.1720687129    2.4872367595    2.1205886635
C        0.1821452919    1.4362726897    1.2532249745
C       -2.7777087620   -3.3022617330   -2.3093444045
C       -0.9568623879   -0.2105923411    2.6762064916
C       -2.1646548705   -1.0309502618   -2.9370681000
C       -1.3098366873   -1.9925892530   -0.8525095476
C       -0.9196971933    2.1613665616    3.2361718711
C       -1.3011362665    0.8467861080    3.4995110934
C       -0.2065661466    0.1268929939    1.5330996169
C       -1.4073908852   -0.9358213435   -1.7723455373
C       -2.8443468225   -2.2198183253   -3.1948362087
C       -0.5408735209   -1.9693977601    0.4220172750
C       -1.9256336088    2.1152620817    5.2315700305
O       -0.5624559142   -2.8820289864    1.2198878767
O       -1.4308414749    2.9967185871    4.2128737766
O       -2.0552055472    0.8044638259    4.6521281951
O        0.2204890663   -0.8423546785    0.6196518327
F       -0.7758065942    0.2347776799   -1.5670803841
Cl      -3.7978574696   -2.3550709937   -4.6518103689
H       -1.9460720743   -3.9942700312   -0.4495033040
H        0.1204758352    3.5114244853    1.9133556338
H        0.7569863008    1.6287300569    0.3545105312
H       -3.3136482567   -4.2200734847   -2.5257353212
H       -1.2295281108   -1.2327941554    2.9081764879
H       -2.2122976030   -0.1861660524   -3.6154257309
H       -1.2052007489    2.0722685852    6.0603366745
H       -2.9061200503    2.4602258308    5.5654171659
28   
torsion grid (120,)
C       -2.1687882428   -3.1469775693   -1.2202260223
C       -0.4696526250    2.5379783443    2.1709082869
C       -0.2043388572    1.4851865710    1.2740134128
C       -2.7376400829   -3.3416954743   -2.4722073956
C       -0.8970793713   -0.1915477522    2.9336601327
C       -1.8623138634   -1.1823230008   -3.1751632052
C       -1.4383561939   -1.9857799221   -0.9007797821
C       -0.9512729428    2.1960264678    3.4202966279
C       -1.1604636394    0.8663917416    3.7848827503
C       -0.4211973148    0.1618990241    1.6555257797
C       -1.3025191314   -1.0193738203   -1.9104815057
C       -2.5764712168   -2.3481453305   -3.4447862040
C       -0.9036687405   -1.8841284725    0.4860348937
C       -1.5426698837    2.1500870857    5.5767142021
O       -1.1792680675   -2.6854997651    1.3557466073
O       -1.3233240333    3.0261702346    4.4601265392
O       -1.6646494582    0.8110627755    5.0665443523
O       -0.0902379996   -0.8035692948    0.6939422917
F       -0.6290687862    0.1287615763   -1.7031990610
Cl      -3.2823137248   -2.5659904768   -5.0278524323
H       -2.2799584402   -3.8972963193   -0.4443916670
H       -0.3112365635    3.5734734482    1.8879432399
H        0.1682704115    1.6863172361    0.2763659761
H       -3.2967909368   -4.2432906589   -2.6978869901
H       -1.0434521923   -1.2239316042    3.2232017544
H       -1.7345980425   -0.4053290680   -3.9208416144
H       -0.6797913838    2.2006262807    6.2551668379
H       -2.4698801217    2.4301604295    6.0806541820
28   
torsion grid (135,)
C       -2.3078319650   -3.1365364274   -1.3131034308
C       -0.6738914544    2.6049070792    2.2135800205
C       -0.5104446205    1.5702759562    1.2727274525
C       -2.6921195009   -3.4380536858   -2.6136120575
C       -0.9271800490   -0.1446546143    2.9862036195
C       -1.6786229397   -1.3577689380   -3.3661377060
C       -1.6049121239   -1.9592323082   -0.9938779773
C       -0.9649582095    2.2346926418    3.5132419507
C       -1.0884685404    0.8957514147    3.8831352062
C       -0.6425784141    0.2376348879    1.6607015451
C       -1.3045609225   -1.0868607998   -2.0522967905
C       -2.3693110558   -2.5379181445   -3.6352141540
C       -1.2760400176   -1.7400430562    0.4433576092
C       -1.2502823574    2.1481719578    5.7300854286
O       -1.7518617105   -2.4117348794    1.3369374499
O       -1.2068818295    3.0424867596    4.6067140540
O       -1.4076738974    0.8126015777    5.2215704893
O       -0.4135694770   -0.7032676942    0.6460031676
F       -0.6514541129    0.0742088114   -1.8477107292
Cl      -2.8411477767   -2.8916099353   -5.2801897040
H       -2.5494700283   -3.8118927289   -0.4988982286
H       -0.5813587215    3.6476475053    1.9282007321
H       -0.2797456358    1.7915341608    0.2367082819
H       -3.2319658894   -4.3513809614   -2.8390396076
H       -1.0229447561   -1.1829807155    3.2731495561
H       -1.4299759751   -0.6504266035   -4.1496670499
H       -0.3044094552    2.2146302452    6.2852787987
H       -2.1066810383    2.3983906477    6.3594588127
28   
torsion grid (150,)
C       -2.4529837446   -3.0498953954   -1.3500725214
C       -0.8879477042    2.6961904462    2.3237275895
C       -0.8020895170    1.7127627447    1.3192735378
C       -2.6716983913   -3.4820169065   -2.6525068555
C       -0.9009897120   -0.0939487414    2.9836756047
C       -1.4044941598   -1.5721753446   -3.4692297753
C       -1.7122928601   -1.8887595653   -1.0611056450
C       -0.9788591061    2.2532880366    3.6299355540
C       -0.9839271896    0.8945202404    3.9466008035
C       -0.8155581180    0.3605452209    1.6544401930
C       -1.1999629180   -1.1687840434   -2.1520134284
C       -2.1390345743   -2.7324495083   -3.7069514942
C       -1.5723722417   -1.5216240224    0.3774252083
C       -0.9610109783    2.0563468481    5.8588375473
O       -2.2216325087   -2.0458095753    1.2603251780
O       -1.1101026916    2.9983881069    4.7843471011
O       -1.1144099226    0.7366589830    5.3094971070
O       -0.6629996464   -0.5291087134    0.5798164091
F       -0.4964155102   -0.0326861885   -1.9793612973
Cl      -2.3992127255   -3.2519293986   -5.3554458069
H       -2.8596795600   -3.6059895431   -0.5117286326
H       -0.8858075640    3.7539364547    2.0821066631
H       -0.7170624759    1.9914900324    0.2744473772
H       -3.2434984761   -4.3813813442   -2.8539835675
H       -0.9162805220   -1.1474270409    3.2289878354
H       -0.9940716762   -0.9800275960   -4.2797794479
H        0.0442427169    2.1536833459    6.2914234764
H       -1.7400910534    2.2304069332    6.6037821492
28   
torsion grid (165,)
C       -2.5864377864   -2.9278997223   -1.4038748186
C       -1.0818486472    2.7830724408    2.4710053007
C       -1.0660957685    1.8890575967    1.3822295306
C       -2.6865046846   -3.4856144500   -2.6728438707
C       -0.9004441576   -0.0473346586    2.8853131040
C       -1.1523664582   -1.7920187508   -3.5074000074
C       -1.7805570784   -1.8046882073   -1.1413389350
C       -1.0052109224    2.2323786771    3.7360620139
C       -0.9156631545    0.8534878203    3.9330201916
C       -0.9819849745    0.5164696282    1.5990345333
C       -1.0726156863   -1.2580737457   -2.2234867620
C       -1.9611593346   -2.9068523529   -3.7197138968
C       -1.7774682843   -1.2984966903    0.2621914338
C       -0.7321429921    1.8566391970    5.9253068922
O       -2.4995807860   -1.7463118494    1.1305141724
O       -1.0379035437    2.8735026728    4.9576988626
O       -0.8857870698    0.5793246112    5.2831132190
O       -0.8954212084   -0.2803975006    0.4468434470
F       -0.2829236010   -0.1776561514   -2.0744806618
Cl      -2.0677529122   -3.5874485290   -5.3263751591
H       -3.1399575010   -3.3516865318   -0.5723868979
H       -1.1525467326    3.8554207891    2.3220816706
H       -1.1088397541    2.2570484300    0.3625692394
H       -3.3129432798   -4.3523276078   -2.8539135436
H       -0.8457174999   -1.1168602513    3.0418041298
H       -0.5886720476   -1.3337252987   -4.3125656594
H        0.3086303297    1.9716455016    6.2577846169
H       -1.4330989451    1.9281318678    6.7594527815
28   
torsion grid (180,)
C        1.1412255895   -3.3561641591   -1.6262891298
C        0.1864244726    2.4374002651    2.3729849815
C        0.4375768842    1.6759080918    1.2136723988
C        1.3775252359   -3.9899872688   -2.8403319155
C       -1.1601411330   -0.0499723897    1.9192192159
C        0.7291106377   -1.9516970218   -3.9996061374
C        0.6970762578   -2.0231925318   -1.5525109584
C       -0.7265496771    1.9249924447    3.2741495283
C       -1.3814680057    0.7123304413    3.0493746305
C       -0.2225548262    0.4690632511    1.0088200434
C        0.5017676594   -1.3455758672   -2.7662964678
C        1.1660739281   -3.2747621731   -4.0238781031
C        0.4826996190   -1.4660795129   -0.1849986331
C       -1.9510512848    1.4457829240    5.0835297888
O        0.6919826526   -2.0983159078    0.8308941187
O       -1.1738986911    2.4785021774    4.4569396999
O       -2.2589157472    0.4612498454    4.0814932550
O        0.0250413967   -0.1856048896   -0.2081413057
F        0.0845158475   -0.0662738252   -2.7969644834
Cl       1.4539784870   -4.0481776557   -5.5650620797
H        1.2963485117   -3.8841867333   -0.6911669407
H        0.6859472206    3.3845451624    2.5475584438
H        1.1432325343    2.0231596956    0.4663081863
H        1.7188211971   -5.0188937560   -2.8756759540
H       -1.6655579284   -0.9928859354    1.7495627682
H        0.5637021736   -1.3876156883   -4.9109527778
H       -1.3582717472    0.9768316446    5.8808650950
H       -2.8795700117    1.8730831684    5.4669036941
