
  -OEChem-05262117483D

 44 46  0     1  0  0  0  0  0999 V2000
   -6.3857    0.0704    1.4320 C   0  0  0  0  0  0  0  0  0  0  0  0
   -4.1635    1.0789    1.2791 C   0  0  0  0  0  0  0  0  0  0  0  0
   -5.4415    0.9214    0.7785 C   0  0  0  0  0  0  0  0  0  0  0  0
   -3.2029    1.9102    0.6592 C   0  0  0  0  0  0  0  0  0  0  0  0
   -3.5593    2.5859   -0.4971 C   0  0  0  0  0  0  0  0  0  0  0  0
   -5.8518    1.6141   -0.4374 C   0  0  0  0  0  0  0  0  0  0  0  0
    0.3258   -0.0670   -0.9362 C   0  0  0  0  0  0  0  0  0  0  0  0
   -1.8335    2.0976    1.2380 C   0  0  0  0  0  0  0  0  0  0  0  0
    1.5668   -2.6819   -0.2236 C   0  0  0  0  0  0  0  0  0  0  0  0
    0.1414   -2.2844    0.1834 C   0  0  0  0  0  0  0  0  0  0  0  0
    0.9277   -0.2219    1.5275 C   0  0  0  0  0  0  0  0  0  0  0  0
    2.2506   -1.6309   -1.1314 C   0  0  0  0  0  0  0  0  0  0  0  0
    0.2788    1.1118    1.9226 C   0  0  0  0  0  0  0  0  0  0  0  0
   -1.3661   -0.3390    0.8892 C   0  0  0  0  0  0  0  0  0  0  0  0
    0.0224   -0.7724    0.3951 C   0  0  1  0  0  0  0  0  0  0  0  0
   -2.6319    3.4744   -1.2735 C   0  0  0  0  0  0  0  0  0  0  0  0
    1.7615    0.0363   -2.9067 C   0  0  0  0  0  0  0  0  0  0  0  0
   -7.1236   -0.6398    1.9896 N   0  0  0  0  0  0  0  0  0  0  0  0
   -4.8193    2.4136   -0.9808 N   0  0  0  0  0  0  0  0  0  0  0  0
    1.3397   -0.6162   -1.6709 N   0  0  0  0  0  0  0  0  0  0  0  0
   -1.1386    0.9570    1.5445 N   0  0  0  0  0  0  0  0  0  0  0  0
   -6.9428    1.5623   -0.9968 O   0  0  0  0  0  0  0  0  0  0  0  0
   -0.3318    0.9037   -1.3303 O   0  0  0  0  0  0  0  0  0  0  0  0
   -1.3711    3.2215    1.4480 O   0  0  0  0  0  0  0  0  0  0  0  0
   -3.8895    0.5481    2.1872 H   0  0  0  0  0  0  0  0  0  0  0  0
    2.1808   -2.8141    0.6718 H   0  0  0  0  0  0  0  0  0  0  0  0
    1.5422   -3.6509   -0.7296 H   0  0  0  0  0  0  0  0  0  0  0  0
   -0.5696   -2.5859   -0.5940 H   0  0  0  0  0  0  0  0  0  0  0  0
   -0.1471   -2.8132    1.0985 H   0  0  0  0  0  0  0  0  0  0  0  0
    1.9718   -0.0891    1.2336 H   0  0  0  0  0  0  0  0  0  0  0  0
    0.9068   -0.9302    2.3636 H   0  0  0  0  0  0  0  0  0  0  0  0
    3.0641   -1.1321   -0.5867 H   0  0  0  0  0  0  0  0  0  0  0  0
    2.7165   -2.1241   -1.9888 H   0  0  0  0  0  0  0  0  0  0  0  0
    0.3791    1.3312    2.9892 H   0  0  0  0  0  0  0  0  0  0  0  0
    0.6980    1.9563    1.3691 H   0  0  0  0  0  0  0  0  0  0  0  0
   -2.0802   -0.2449    0.0737 H   0  0  0  0  0  0  0  0  0  0  0  0
   -1.7453   -1.0759    1.6089 H   0  0  0  0  0  0  0  0  0  0  0  0
   -1.6967    2.9447   -1.4721 H   0  0  0  0  0  0  0  0  0  0  0  0
   -2.3872    4.3618   -0.6853 H   0  0  0  0  0  0  0  0  0  0  0  0
   -3.0805    3.7798   -2.2230 H   0  0  0  0  0  0  0  0  0  0  0  0
    2.7090    0.5721   -2.7638 H   0  0  0  0  0  0  0  0  0  0  0  0
    0.9952    0.7480   -3.2087 H   0  0  0  0  0  0  0  0  0  0  0  0
    1.8984   -0.7140   -3.6923 H   0  0  0  0  0  0  0  0  0  0  0  0
   -5.0908    2.8910   -1.8362 H   0  0  0  0  0  0  0  0  0  0  0  0
  1  3  1  0  0  0  0
  1 18  3  0  0  0  0
  2  3  2  0  0  0  0
  2  4  1  0  0  0  0
  2 25  1  0  0  0  0
  3  6  1  0  0  0  0
  4  5  2  0  0  0  0
  4  8  1  0  0  0  0
  5 16  1  0  0  0  0
  5 19  1  0  0  0  0
  6 19  1  0  0  0  0
  6 22  2  0  0  0  0
  7 15  1  0  0  0  0
  7 20  1  0  0  0  0
  7 23  2  0  0  0  0
  8 21  1  0  0  0  0
  8 24  2  0  0  0  0
  9 10  1  0  0  0  0
  9 12  1  0  0  0  0
  9 26  1  0  0  0  0
  9 27  1  0  0  0  0
 10 15  1  0  0  0  0
 10 28  1  0  0  0  0
 10 29  1  0  0  0  0
 11 13  1  0  0  0  0
 11 15  1  0  0  0  0
 11 30  1  0  0  0  0
 11 31  1  0  0  0  0
 12 20  1  0  0  0  0
 12 32  1  0  0  0  0
 12 33  1  0  0  0  0
 13 21  1  0  0  0  0
 13 34  1  0  0  0  0
 13 35  1  0  0  0  0
 14 15  1  0  0  0  0
 14 21  1  0  0  0  0
 14 36  1  0  0  0  0
 14 37  1  0  0  0  0
 16 38  1  0  0  0  0
 16 39  1  0  0  0  0
 16 40  1  0  0  0  0
 17 20  1  0  0  0  0
 17 41  1  0  0  0  0
 17 42  1  0  0  0  0
 17 43  1  0  0  0  0
 19 44  1  0  0  0  0
M  END
$$$$
