31
0 1 BrC14H10N5O
C                    -6.315920269721     2.016594388288     0.530903143310
C                    -1.776790845386     0.677753010209     0.620637876674
C                    -0.707016060159     1.545061160274     0.825548379198
C                    -1.690386012537     2.383156712145     2.914711568940
C                    -4.714397726730     0.338899923842     2.724535360251
C                    -5.427830425700     3.022324173359     1.006680912314
C                    -2.776023567293     1.511094968488     2.717075914244
C                    -4.012626278405     1.294994987386     3.429273418353
C                    -2.804562972698     0.670136425030     1.569372445058
C                    -0.680542657835     2.378226971335     1.963289351837
C                    -5.341951166365     3.497669287077     2.287845456416
C                    -3.785280080343     4.388067613761     1.025749273340
C                    -4.504841979648     2.024905359803     4.612923001151
C                    -2.613487411465     5.254353314078     0.738816869382
N                    -7.020277616570     1.162203575647     0.167228782913
N                    -4.431163377165     3.599708639447     0.217558351161
N                    -5.442299474750     2.904787887541     4.648262794098
N                    -3.988774351190    -0.044743351357     1.616716104435
N                    -6.082853893558     3.264454905340     3.444905291989
O                    -4.290322529163     4.392729299855     2.303424798631
Br                    0.805466109345     3.582103802666     2.177817914754
H                    -1.809840761540     0.043648361997    -0.261100724255
H                     0.105525979301     1.586785439225     0.108390045119
H                    -1.654170986943     3.049373537451     3.770531133592
H                    -5.700691055107    -0.063802970375     2.908843999110
H                    -4.063702113522     1.820420659722     5.588925309185
H                    -2.877680843134     6.311805128434     0.843723764264
H                    -1.794347781046     5.037919057024     1.428872000881
H                    -2.280024751712     5.066851434718    -0.282011685620
H                    -4.342486791842    -0.646988382882     0.885682590431
H                    -6.726931807073     4.019044335411     3.660039921565
