35
0 1 C17H14N2O2
C                     5.002972278700    -3.846284481165    -4.976928430685
C                     4.888628831208    -1.879310045068    -3.501932582107
C                     5.893970851094    -3.942483119449    -2.683871637098
C                     5.117483401282    -1.282677811004    -2.265669391094
C                     6.141244143084    -3.327638013406    -1.459382141596
C                     1.061754998764    -0.080719045974    -0.191653285162
C                     1.824659580850     0.999897781242     0.242995449877
C                     2.976466517675    -1.519135154733    -0.004825910949
C                     5.262429076907    -3.218753637396    -3.710644063992
C                     5.733905767628    -2.006091797605    -1.234313691586
C                     1.625380211778    -1.362207885747    -0.317223121342
C                     3.775950352738    -0.430410650010     0.374486239284
C                     3.183492067425     0.835856745970     0.532174777314
C                     6.083581390512    -1.376884721520     0.085373138375
C                     5.602638492091     0.376359346690     1.729953767352
C                     5.266654461682     1.779800339684     1.245368362270
C                     0.797907479654    -2.535539126782    -0.789080713820
N                     4.787995550312    -4.356207520815    -6.002672475755
N                     5.152981825682    -0.562750461918     0.700636447876
O                     7.199856861112    -1.561142723412     0.572452375731
O                     3.861098659591     1.936157912361     0.995662363267
H                     4.416766523762    -1.320811601414    -4.304264480669
H                     6.191926317982    -4.972034409337    -2.856127534720
H                     4.812411802687    -0.254139276338    -2.104498454260
H                     6.654338197792    -3.863247283112    -0.666792935243
H                     0.008927018457     0.069407343336    -0.418575501150
H                     1.387688673333     1.986355588480     0.367827988742
H                     3.427107850579    -2.504606887865    -0.062715114324
H                     6.676798838743     0.256657874105     1.866698519155
H                     5.096095598333     0.158862803427     2.676403094536
H                     5.521169099291     2.531920845853     1.995926589143
H                     5.820886017192     1.995062463925     0.323364852593
H                     0.723330180805    -2.549991051657    -1.883145833705
H                     1.239427083347    -3.486886100177    -0.478757126661
H                    -0.221004675955    -2.490642504537    -0.392316235677
