32
0 1 C14H12N4O2
C                    -2.771057085709     0.250628016208     0.640172072399
C                     2.169857533724    -3.701773958544    -5.133140850053
C                     3.495857992861    -3.578186610698    -5.574053334024
C                     1.695379704413    -2.922166114766    -4.082943854169
C                     3.892345414983    -1.889623200894    -3.910142888145
C                    -1.369499407949     0.269589668649     0.353532546859
C                     4.374414926394    -2.668130678872    -4.969779669911
C                    -0.827580155098    -0.470479255180    -0.687522002526
C                     2.567031663821    -2.005218496454    -3.466190048261
C                     0.580970123242    -0.436208273196    -0.968900532905
C                    -0.547887652106     1.105754443382     1.211628880585
C                     1.390212245366     0.358669053081    -0.148967676431
C                     5.794246125135    -2.510116977322    -5.463616473789
C                    -1.704053479824    -1.332768111776    -1.556300127505
N                    -3.915734343889     0.223447257416     0.858771870769
N                     2.217308309152    -1.154162241087    -2.387091695050
N                     1.003666316748    -1.237211841707    -2.035211482864
N                     0.830020027172     1.067795884714     0.866421831155
O                    -0.900502468096     1.803801611291     2.154028509826
O                     2.718184979718     0.442213524353    -0.314724552933
H                     1.509608853669    -4.418200345289    -5.615575906498
H                     3.848567240524    -4.199967245559    -6.394103503793
H                     0.674109820909    -3.010599204486    -3.729175839326
H                     4.537915232517    -1.174754860026    -3.405690762962
H                     5.856108772015    -1.727319311527    -6.229140075601
H                     6.470612886848    -2.228258425003    -4.651305113258
H                     6.166988111664    -3.436433000801    -5.910330777320
H                    -1.614711168403    -1.027802898967    -2.602467057923
H                    -2.748332253036    -1.273299245634    -1.251232968707
H                    -1.371625747817    -2.373326806239    -1.507502098649
H                     1.400643100787     1.660416944937     1.465328029653
H                     3.122090757236     0.981002371204     0.388435758024
