
  -OEChem-05262117483D

 31 33  0     0  0  0  0  0  0999 V2000
   -6.9804   -0.0221    2.9593 C   0  0  0  0  0  0  0  0  0  0  0  0
   -1.7146   -1.9112    2.4258 C   0  0  0  0  0  0  0  0  0  0  0  0
   -1.4137   -2.1948    3.7554 C   0  0  0  0  0  0  0  0  0  0  0  0
   -2.8359   -0.3533    4.5426 C   0  0  0  0  0  0  0  0  0  0  0  0
   -3.8901    0.7251    1.2032 C   0  0  0  0  0  0  0  0  0  0  0  0
   -7.2804    0.5987    1.7184 C   0  0  0  0  0  0  0  0  0  0  0  0
   -3.1355   -0.0485    3.2043 C   0  0  0  0  0  0  0  0  0  0  0  0
   -3.9737    0.9544    2.5731 C   0  0  0  0  0  0  0  0  0  0  0  0
   -2.5730   -0.8383    2.1697 C   0  0  0  0  0  0  0  0  0  0  0  0
   -1.9761   -1.4160    4.7869 C   0  0  0  0  0  0  0  0  0  0  0  0
   -6.8540    1.8119    1.2194 C   0  0  0  0  0  0  0  0  0  0  0  0
   -8.2240    0.8496   -0.1990 C   0  0  0  0  0  0  0  0  0  0  0  0
   -4.6715    1.9916    3.3027 C   0  0  0  0  0  0  0  0  0  0  0  0
   -9.0115    0.7790   -1.4575 C   0  0  0  0  0  0  0  0  0  0  0  0
   -6.7348   -0.5371    3.9768 N   0  0  0  0  0  0  0  0  0  0  0  0
   -8.1521    0.0136    0.7791 N   0  0  0  0  0  0  0  0  0  0  0  0
   -5.5490    2.8736    2.9481 N   0  0  0  0  0  0  0  0  0  0  0  0
   -3.0507   -0.3326    0.9665 N   0  0  0  0  0  0  0  0  0  0  0  0
   -5.9708    2.8035    1.5874 N   0  0  0  0  0  0  0  0  0  0  0  0
   -7.4406    1.9860   -0.0032 O   0  0  0  0  0  0  0  0  0  0  0  0
   -1.5338   -1.8570    6.6025 Br  0  0  0  0  0  0  0  0  0  0  0  0
   -1.2927   -2.5118    1.6244 H   0  0  0  0  0  0  0  0  0  0  0  0
   -0.7517   -3.0178    4.0017 H   0  0  0  0  0  0  0  0  0  0  0  0
   -3.2696    0.2062    5.3642 H   0  0  0  0  0  0  0  0  0  0  0  0
   -4.3496    1.2578    0.3854 H   0  0  0  0  0  0  0  0  0  0  0  0
   -4.4191    2.0698    4.3595 H   0  0  0  0  0  0  0  0  0  0  0  0
   -9.7251    1.6073   -1.5188 H   0  0  0  0  0  0  0  0  0  0  0  0
   -8.3590    0.8328   -2.3351 H   0  0  0  0  0  0  0  0  0  0  0  0
   -9.5582   -0.1643   -1.4741 H   0  0  0  0  0  0  0  0  0  0  0  0
   -2.8374   -0.7043    0.0512 H   0  0  0  0  0  0  0  0  0  0  0  0
   -6.3115    3.7197    1.3061 H   0  0  0  0  0  0  0  0  0  0  0  0
  1  6  1  0  0  0  0
  1 15  3  0  0  0  0
  2  3  1  0  0  0  0
  2  9  2  0  0  0  0
  2 22  1  0  0  0  0
  3 10  2  0  0  0  0
  3 23  1  0  0  0  0
  4  7  2  0  0  0  0
  4 10  1  0  0  0  0
  4 24  1  0  0  0  0
  5  8  2  0  0  0  0
  5 18  1  0  0  0  0
  5 25  1  0  0  0  0
  6 11  2  0  0  0  0
  6 16  1  0  0  0  0
  7  8  1  0  0  0  0
  7  9  1  0  0  0  0
  8 13  1  0  0  0  0
  9 18  1  0  0  0  0
 10 21  1  0  0  0  0
 11 19  1  0  0  0  0
 11 20  1  0  0  0  0
 12 14  1  0  0  0  0
 12 16  2  0  0  0  0
 12 20  1  0  0  0  0
 13 17  2  0  0  0  0
 13 26  1  0  0  0  0
 14 27  1  0  0  0  0
 14 28  1  0  0  0  0
 14 29  1  0  0  0  0
 17 19  1  0  0  0  0
 18 30  1  0  0  0  0
 19 31  1  0  0  0  0
M  END
$$$$
