44
0 1 C17H20N4O3
C                     1.336335157767     1.304188584154    -3.268002228896
C                     0.832780559468     1.168303507189    -0.889022741109
C                     0.610805319591     0.731330049038    -2.177166158934
C                     0.177433171655     0.593014006053     0.230967622303
C                    -0.764609760396    -0.391259738668     0.006675507011
C                    -0.343855668420    -0.339473234432    -2.448998718732
C                     3.785930338592     2.605508149392     0.410747747805
C                     0.450523453389     1.129942890260     1.608831713253
C                     5.715685159077     0.455335235306     0.028937764718
C                     5.422709233867     0.944215596092     1.445965514891
C                     3.701313468535     2.176640336707     2.904268378398
C                     5.659122407174     1.623379535623    -0.947784832877
C                     2.178952528903     2.014485929318     3.116123781468
C                     2.901357221101     0.506274786124     1.387853506743
C                     4.026791346898     1.566594905007     1.518711357872
C                    -1.598031560932    -1.051332853600     1.066299995991
C                     4.253963784330     3.445628809531    -1.835450673658
N                     1.980609570656     1.784023528374    -4.112999288782
N                    -0.981130643760    -0.803618465947    -1.277486222727
N                     4.481961309578     2.478182598479    -0.760034552442
N                     1.749454741331     1.134254922512     2.018524324034
O                    -0.621232862363    -0.831623666958    -3.537934994882
O                     2.905250017999     3.462696827782     0.559665909124
O                    -0.458356995932     1.581469568388     2.312532224182
H                     1.520046577810     1.991814162535    -0.718433439486
H                     6.706891336928    -0.005323612699    -0.031324745529
H                     4.989688951734    -0.311618727215    -0.263154275797
H                     5.495933680593     0.122419808290     2.167757134123
H                     6.170394065529     1.691886044717     1.740499131430
H                     4.001409679494     3.223902822703     2.962166392574
H                     4.256339684171     1.620996232593     3.667158138231
H                     6.563714737761     2.241623160591    -0.842448193182
H                     5.643151389155     1.257860569306    -1.979958788522
H                     1.942441706525     1.570809621569     4.088908453932
H                     1.639317162559     2.957759722270     3.029445173497
H                     2.693364764043     0.198677175990     0.365377522541
H                     3.197677297569    -0.392380737087     1.950385095675
H                    -2.626470689660    -0.677008145659     1.013395805985
H                    -1.221957446051    -0.824072974925     2.061836049949
H                    -1.621381637647    -2.136703909421     0.921006624480
H                     5.141002126774     4.078037391864    -1.968354419135
H                     3.405132957264     4.074471346018    -1.575616101131
H                     4.044036628931     2.921027441827    -2.771824662545
H                    -1.662947586777    -1.536919758304    -1.454518701399
