
  -OEChem-05262117483D

 44 46  0     1  0  0  0  0  0999 V2000
   -1.7640    4.8602   -5.1669 C   0  0  0  0  0  0  0  0  0  0  0  0
   -1.8682    3.5824   -3.0850 C   0  0  0  0  0  0  0  0  0  0  0  0
   -2.3031    3.7966   -4.3788 C   0  0  0  0  0  0  0  0  0  0  0  0
   -2.3812    2.5412   -2.2792 C   0  0  0  0  0  0  0  0  0  0  0  0
   -3.3520    1.7083   -2.8080 C   0  0  0  0  0  0  0  0  0  0  0  0
   -3.3175    2.9336   -4.9746 C   0  0  0  0  0  0  0  0  0  0  0  0
    0.0309   -0.8631   -0.0496 C   0  0  0  0  0  0  0  0  0  0  0  0
   -1.9359    2.3346   -0.8606 C   0  0  0  0  0  0  0  0  0  0  0  0
    2.6769   -1.0373    1.1465 C   0  0  0  0  0  0  0  0  0  0  0  0
    1.8487    0.2187    1.3946 C   0  0  0  0  0  0  0  0  0  0  0  0
    1.4428    0.9378   -1.0467 C   0  0  0  0  0  0  0  0  0  0  0  0
    1.7619   -2.2541    1.1371 C   0  0  0  0  0  0  0  0  0  0  0  0
    0.2914    1.6466   -1.7718 C   0  0  0  0  0  0  0  0  0  0  0  0
   -0.1631    1.5582    0.6144 C   0  0  0  0  0  0  0  0  0  0  0  0
    0.8192    0.4189    0.2783 C   0  0  1  0  0  0  0  0  0  0  0  0
   -3.9732    0.5641   -2.0598 C   0  0  0  0  0  0  0  0  0  0  0  0
   -0.1676   -3.2918    0.0021 C   0  0  0  0  0  0  0  0  0  0  0  0
   -1.2941    5.7339   -5.7795 N   0  0  0  0  0  0  0  0  0  0  0  0
   -3.7638    1.9274   -4.0873 N   0  0  0  0  0  0  0  0  0  0  0  0
    0.5822   -2.0708    0.2856 N   0  0  0  0  0  0  0  0  0  0  0  0
   -0.6025    2.0870   -0.6813 N   0  0  0  0  0  0  0  0  0  0  0  0
   -3.7824    2.9999   -6.1084 O   0  0  0  0  0  0  0  0  0  0  0  0
   -1.0428   -0.7889   -0.6623 O   0  0  0  0  0  0  0  0  0  0  0  0
   -2.7409    2.3798    0.0722 O   0  0  0  0  0  0  0  0  0  0  0  0
   -1.1136    4.2465   -2.6715 H   0  0  0  0  0  0  0  0  0  0  0  0
    3.2060   -0.9588    0.1902 H   0  0  0  0  0  0  0  0  0  0  0  0
    3.4345   -1.1709    1.9253 H   0  0  0  0  0  0  0  0  0  0  0  0
    1.3303    0.1272    2.3584 H   0  0  0  0  0  0  0  0  0  0  0  0
    2.4869    1.1065    1.4630 H   0  0  0  0  0  0  0  0  0  0  0  0
    1.8819    0.1494   -1.6626 H   0  0  0  0  0  0  0  0  0  0  0  0
    2.2359    1.6519   -0.7990 H   0  0  0  0  0  0  0  0  0  0  0  0
    2.3016   -3.1356    0.7736 H   0  0  0  0  0  0  0  0  0  0  0  0
    1.4322   -2.4828    2.1620 H   0  0  0  0  0  0  0  0  0  0  0  0
    0.6520    2.4924   -2.3638 H   0  0  0  0  0  0  0  0  0  0  0  0
   -0.2385    0.9592   -2.4350 H   0  0  0  0  0  0  0  0  0  0  0  0
   -1.0333    1.2327    1.1849 H   0  0  0  0  0  0  0  0  0  0  0  0
    0.3576    2.3331    1.1910 H   0  0  0  0  0  0  0  0  0  0  0  0
   -4.6557    0.9491   -1.2969 H   0  0  0  0  0  0  0  0  0  0  0  0
   -3.2037   -0.0151   -1.5431 H   0  0  0  0  0  0  0  0  0  0  0  0
   -4.5259   -0.0954   -2.7350 H   0  0  0  0  0  0  0  0  0  0  0  0
    0.4858   -4.0218   -0.4876 H   0  0  0  0  0  0  0  0  0  0  0  0
   -1.0049   -3.0525   -0.6502 H   0  0  0  0  0  0  0  0  0  0  0  0
   -0.5508   -3.7339    0.9309 H   0  0  0  0  0  0  0  0  0  0  0  0
   -4.4667    1.3161   -4.4942 H   0  0  0  0  0  0  0  0  0  0  0  0
  1  3  1  0  0  0  0
  1 18  3  0  0  0  0
  2  3  2  0  0  0  0
  2  4  1  0  0  0  0
  2 25  1  0  0  0  0
  3  6  1  0  0  0  0
  4  5  2  0  0  0  0
  4  8  1  0  0  0  0
  5 16  1  0  0  0  0
  5 19  1  0  0  0  0
  6 19  1  0  0  0  0
  6 22  2  0  0  0  0
  7 15  1  0  0  0  0
  7 20  1  0  0  0  0
  7 23  2  0  0  0  0
  8 21  1  0  0  0  0
  8 24  2  0  0  0  0
  9 10  1  0  0  0  0
  9 12  1  0  0  0  0
  9 26  1  0  0  0  0
  9 27  1  0  0  0  0
 10 15  1  0  0  0  0
 10 28  1  0  0  0  0
 10 29  1  0  0  0  0
 11 13  1  0  0  0  0
 11 15  1  0  0  0  0
 11 30  1  0  0  0  0
 11 31  1  0  0  0  0
 12 20  1  0  0  0  0
 12 32  1  0  0  0  0
 12 33  1  0  0  0  0
 13 21  1  0  0  0  0
 13 34  1  0  0  0  0
 13 35  1  0  0  0  0
 14 15  1  0  0  0  0
 14 21  1  0  0  0  0
 14 36  1  0  0  0  0
 14 37  1  0  0  0  0
 16 38  1  0  0  0  0
 16 39  1  0  0  0  0
 16 40  1  0  0  0  0
 17 20  1  0  0  0  0
 17 41  1  0  0  0  0
 17 42  1  0  0  0  0
 17 43  1  0  0  0  0
 19 44  1  0  0  0  0
M  END
$$$$
