
  -OEChem-05262117483D

 20 20  0     0  0  0  0  0  0999 V2000
    4.2216   -2.3707   -0.4387 C   0  0  0  0  0  0  0  0  0  0  0  0
    1.9580   -1.4208   -0.3113 C   0  0  0  0  0  0  0  0  0  0  0  0
    0.9231   -0.8185    0.4029 C   0  0  0  0  0  0  0  0  0  0  0  0
    2.3171   -0.8683    2.4127 C   0  0  0  0  0  0  0  0  0  0  0  0
    3.1693   -1.7520    0.3116 C   0  0  0  0  0  0  0  0  0  0  0  0
    3.3531   -1.4736    1.6883 C   0  0  0  0  0  0  0  0  0  0  0  0
    1.1252   -0.5533    1.7576 C   0  0  0  0  0  0  0  0  0  0  0  0
    6.2063   -2.0617    3.9055 C   0  0  0  0  0  0  0  0  0  0  0  0
    4.8023   -1.5696    3.6061 C   0  0  0  0  0  0  0  0  0  0  0  0
    5.0607   -2.8734   -1.0724 N   0  0  0  0  0  0  0  0  0  0  0  0
    4.5482   -1.8235    2.2124 O   0  0  0  0  0  0  0  0  0  0  0  0
   -0.2764    0.2730    2.7658 Br  0  0  0  0  0  0  0  0  0  0  0  0
    1.8332   -1.6408   -1.3669 H   0  0  0  0  0  0  0  0  0  0  0  0
   -0.0128   -0.5632   -0.0806 H   0  0  0  0  0  0  0  0  0  0  0  0
    2.4269   -0.6430    3.4652 H   0  0  0  0  0  0  0  0  0  0  0  0
    6.2921   -3.1317    3.6985 H   0  0  0  0  0  0  0  0  0  0  0  0
    6.9400   -1.5300    3.2937 H   0  0  0  0  0  0  0  0  0  0  0  0
    6.4399   -1.8895    4.9608 H   0  0  0  0  0  0  0  0  0  0  0  0
    4.7088   -0.4939    3.8007 H   0  0  0  0  0  0  0  0  0  0  0  0
    4.0578   -2.1011    4.2121 H   0  0  0  0  0  0  0  0  0  0  0  0
  1  5  1  0  0  0  0
  1 10  3  0  0  0  0
  2  3  1  0  0  0  0
  2  5  2  0  0  0  0
  2 13  1  0  0  0  0
  3  7  2  0  0  0  0
  3 14  1  0  0  0  0
  4  6  2  0  0  0  0
  4  7  1  0  0  0  0
  4 15  1  0  0  0  0
  5  6  1  0  0  0  0
  6 11  1  0  0  0  0
  7 12  1  0  0  0  0
  8  9  1  0  0  0  0
  8 16  1  0  0  0  0
  8 17  1  0  0  0  0
  8 18  1  0  0  0  0
  9 11  1  0  0  0  0
  9 19  1  0  0  0  0
  9 20  1  0  0  0  0
M  END
$$$$
