15   
torsion grid (-165,)
C       -0.0099926366   -0.2529285853   -0.1257595376
C       -0.3892978679    0.6661839482    2.2157075809
C       -0.9602555142    0.4591516912    0.8139300115
C       -0.4339831037   -0.3663609317   -1.5978138452
N       -0.4625870013    0.9719327485   -2.2980138687
O       -1.0540437887    1.0181343942   -3.3748552094
O        1.0219474902   -0.7887793846    0.2319831155
O        0.1338110468    1.9090472822   -1.7639082201
H        0.5083904918    1.2891718728    2.1788771507
H       -0.1123322561   -0.2870306707    2.6725477784
H       -1.1262378874    1.1594856500    2.8559211329
H       -1.8787840071   -0.1459847332    0.8488138108
H       -1.2534376641    1.4118470416    0.3591679551
H        0.2920819969   -0.9706865860   -2.1437600914
H       -1.4315697507   -0.7928534182   -1.7186624395
15   
torsion grid (-150,)
C        0.1144980335   -0.2043885011   -0.0615007017
C       -0.4527192170    0.5312040829    2.3041480067
C       -0.8006399530    0.6201898064    0.8187395799
C       -0.2615677868   -0.3730815391   -1.5428847114
N       -0.6290903974    0.9063667226   -2.2486006887
O       -1.4389987532    0.8249583139   -3.1715340621
O        1.0856701447   -0.8094867402    0.3523280433
O       -0.0515032541    1.9349171531   -1.8895113840
H        0.5669452189    0.8795325856    2.4859575183
H       -0.5186787953   -0.4986569461    2.6652892013
H       -1.1396362879    1.1493765689    2.8892016272
H       -1.8327938066    0.2935633567    0.6273339043
H       -0.7541419836    1.6564114680    0.4650787404
H        0.5983067856   -0.7730367404   -2.0827651690
H       -1.1103841517   -1.0492544619   -1.6590602909
15   
torsion grid (-135,)
C        0.1781939608   -0.1476199165   -0.0584880860
C       -0.4710927336    0.5375671026    2.2993245257
C       -0.6976750186    0.7377382403    0.8011721765
C       -0.1473920304   -0.2796628700   -1.5571919438
N       -0.7173104023    0.9580063133   -2.1903610274
O       -1.6908170412    0.8246909192   -2.9326782190
O        1.0876558461   -0.8285761844    0.3758220149
O       -0.1379812172    2.0205743783   -1.9507049538
H        0.5667001502    0.7489670243    2.5677714604
H       -0.6862134971   -0.4920626831    2.5980989316
H       -1.1205623442    1.2073926631    2.8700343254
H       -1.7449975235    0.5553925638    0.5220176380
H       -0.4991330819    1.7753893529    0.5079616682
H        0.7743453877   -0.5014690551   -2.0966679355
H       -0.8693799407   -1.0822474572   -1.7147971548
15   
torsion grid (-120,)
C        0.1448393348   -0.1919713561   -0.0608917399
C       -0.5111162421    0.5599851798    2.2725319888
C       -0.6960948762    0.7522192201    0.7680027621
C       -0.0979091142   -0.2757442525   -1.5816581579
N       -0.7719083660    0.9274794275   -2.1692479121
O       -1.8560666150    0.7651753385   -2.7321473662
O        0.9757356934   -0.9486263530    0.4027781021
O       -0.1776437205    2.0030662423   -2.0543495696
H        0.5309001463    0.7187732049    2.5606394652
H       -0.7873179614   -0.4527834512    2.5780279094
H       -1.1351645587    1.2708745928    2.8213825945
H       -1.7455569700    0.6204844310    0.4690790945
H       -0.4387793490    1.7741692322    0.4639318568
H        0.8659559397   -0.3716082170   -2.0817194034
H       -0.7246303369   -1.1407587742   -1.8009722486
15   
torsion grid (-105,)
C        0.1363029765   -0.2294821759   -0.1001781727
C       -0.5020104617    0.5413480743    2.2312294161
C       -0.6518989819    0.7593065348    0.7266607983
C       -0.0233388971   -0.2280830252   -1.6368044634
N       -0.7831895246    0.9475377676   -2.1664361385
O       -1.9434801710    0.7604327487   -2.5395419558
O        0.8831206247   -1.0680769861    0.3647137327
O       -0.1947125424    2.0324560445   -2.1700190005
H        0.5435491356    0.6280807078    2.5368815136
H       -0.8492530577   -0.4537542393    2.5215290424
H       -1.0867565982    1.2863915824    2.7779676635
H       -1.7030554034    0.6987251699    0.4127260895
H       -0.3257925021    1.7658355623    0.4350317056
H        0.9692822563   -0.2000313958   -2.0856475113
H       -0.5571276451   -1.1289832067   -1.9385862521
15   
torsion grid (-90,)
C        0.1264967118   -0.2536041699   -0.1058390038
C       -0.4796572147    0.5347527527    2.2283327974
C       -0.6677715862    0.7267802164    0.7246499154
C        0.0182271765   -0.1995121509   -1.6470674139
N       -0.7435253596    0.9852696659   -2.1495842885
O       -1.9620269021    0.8557092515   -2.2950742182
O        0.8479336157   -1.1161347225    0.3548413162
O       -0.1054123474    2.0238039088   -2.3400505061
H        0.5688297544    0.6572779233    2.5116393836
H       -0.7904253954   -0.4662769051    2.5381971412
H       -1.0757894047    1.2691246619    2.7772179135
H       -1.7224817875    0.6289744677    0.4349986374
H       -0.3804527595    1.7395407586    0.4119376701
H        1.0218116130   -0.1515331317   -2.0670164108
H       -0.5044535482   -1.0932489689   -1.9883930556
15   
torsion grid (-75,)
C        0.0629175971   -0.3224497761   -0.1300516677
C       -0.4277038046    0.4536452040    2.2350321426
C       -0.6080928907    0.7139648944    0.7405846862
C        0.0790694434   -0.1273480479   -1.6628963849
N       -0.8038379260    0.9830985442   -2.1379681838
O       -2.0185069245    0.7642090073   -2.1406409435
O        0.6317162839   -1.3088423346    0.2946911010
O       -0.2672587964    2.0487158131   -2.4501540382
H        0.6304058033    0.4539548703    2.5097161718
H       -0.8412565346   -0.5181191386    2.5158774851
H       -0.9371831417    1.2286043072    2.8145336445
H       -1.6702369411    0.7385849529    0.4651950968
H       -0.2165951612    1.6992741986    0.4526578376
H        1.0966318262    0.1013221838   -1.9791655857
H       -0.2730999681   -1.0461869927   -2.1308860148
15   
torsion grid (-60,)
C       -0.2816348290   -0.0720202359   -0.0610571135
C        0.2800058771    0.2901392098    2.3868981363
C        0.6612130337    0.5667548892    0.9333647014
C        0.0958742059   -0.0741894436   -1.5571613179
N        1.0752795481    0.9903927996   -1.9481604793
O        0.7283964143    2.1588754985   -1.7535288430
O       -1.3068149031   -0.6488763203    0.2454043999
O        2.1589331557    0.6341258141   -2.4146356451
H        0.2833335424   -0.7824262546    2.5988347529
H       -0.7222844376    0.6665129357    2.6055043551
H        0.9891214955    0.7797292622    3.0602903340
H        0.6779150656    1.6435403364    0.7258477002
H        1.6780789515    0.2159077062    0.7076805865
H        0.5372171996   -1.0364881990   -1.8183353714
H       -0.8087157397    0.0972751399   -2.1408959178
15   
torsion grid (-45,)
C       -0.3021629223   -0.0164261330   -0.0592731746
C        0.2297334376    0.2701187741    2.4076830384
C        0.6584893661    0.5450501237    0.9665973805
C        0.1497189023   -0.0965709466   -1.5286748006
N        1.0311577522    1.0343687291   -1.9786949683
O        0.6869795421    2.1725023319   -1.6498993626
O       -1.3902543681   -0.4850045645    0.2162086527
O        2.0244179491    0.7525583546   -2.6498351389
H        0.1641095591   -0.8037612402    2.6031840125
H       -0.7525885821    0.7031021296    2.6109033728
H        0.9519314226    0.7059717957    3.1038577491
H        0.7413421957    1.6221446417    0.7795885652
H        1.6578589050    0.1386587019    0.7568107835
H        0.7015774947   -1.0212849821   -1.7037874765
H       -0.7343886630   -0.0689257771   -2.1671460487
15   
torsion grid (-30,)
C       -0.2499240091   -0.0886382104   -0.0607915070
C        0.1956652543    0.3029480434    2.4111007025
C        0.7392713345    0.3815287481    0.9850471705
C        0.2432183826   -0.2211582644   -1.5112066559
N        0.9208982980    1.0127184355   -2.0501364470
O        0.5508578532    2.1010704499   -1.6042808444
O       -1.3857551003   -0.4426443342    0.1940494482
O        1.7758786107    0.8476624413   -2.9194223824
H       -0.0730406280   -0.7230894538    2.6761989095
H       -0.7017433631    0.9171179279    2.5191186395
H        0.9474022667    0.6600072729    3.1208249592
H        1.0305330863    1.4069605700    0.7310912198
H        1.6534949191   -0.2184604430    0.8712367201
H        0.9571711486   -1.0395991336   -1.6183919550
H       -0.6145953832   -0.3983392664   -2.1621389681
15   
torsion grid (-15,)
C       -0.1517782581   -0.1519939007   -0.0954236550
C        0.1825973976    0.4182423079    2.3611158404
C        0.8345829222    0.2085296297    0.9955042005
C        0.3872925482   -0.2203240935   -1.5321456570
N        0.7765039823    1.1375056828   -2.0684284522
O        0.3739751034    2.1302959564   -1.4589901065
O       -1.3132973516   -0.4484126266    0.1119716453
O        1.4521421817    1.1507512858   -3.0954184136
H       -0.3597554836   -0.4753305301    2.6795611859
H       -0.5323593574    1.2445681149    2.3247330854
H        0.9427536045    0.6517526320    3.1120880516
H        1.3942108877    1.0964434735    0.6810962518
H        1.5720996931   -0.6074033738    1.0332001234
H        1.2773515148   -0.8460670460   -1.6216093602
H       -0.3909489581   -0.5918341486   -2.2005059454
15   
torsion grid (0,)
C       -0.1693148003   -0.1450728919   -0.0477739387
C        0.2020468843    0.4246849806    2.4033893609
C        0.0774407877    0.9447170121    0.9726132484
C       -0.1400109514    0.2618310830   -1.5286467378
N        1.2711152527    0.4513259073   -2.0401972819
O        2.2017284079    0.2682529538   -1.2536529221
O       -0.4365474998   -1.2968087411    0.2394419938
O        1.3820843776    0.7726509656   -3.2210036429
H        1.0490543923   -0.2608433504    2.4924346305
H       -0.6969193880   -0.1193095286    2.7036750210
H        0.3553564628    1.2558828131    3.0976145443
H       -0.7588390330    1.6546766137    0.8830706777
H        0.9707763622    1.5028365897    0.6699017523
H       -0.5779734791   -0.5234101502   -2.1452253465
H       -0.6500781323    1.2083037475   -1.7217573480
15   
torsion grid (15,)
C       -0.1923848657   -0.2026262826   -0.0616294854
C        0.1930849296    0.3929718064    2.3813682658
C        0.1053566933    0.8929279514    0.9404285044
C       -0.1363305660    0.1751721368   -1.5494340108
N        1.2677737674    0.4826382308   -2.0149900235
O        2.2005578085    0.1354099643   -1.2880625585
O       -0.5311266837   -1.3295855312    0.2469485629
O        1.3765226972    1.0402688170   -3.1052159017
H        1.0027687973   -0.3337207916    2.4892153929
H       -0.7349708528   -0.0976036824    2.6848062832
H        0.3853257155    1.2280034840    3.0611397789
H       -0.6935407257    1.6420332880    0.8322501277
H        1.0278642196    1.4011986158    0.6386543837
H       -0.4729505711   -0.6666634660   -2.1563811434
H       -0.7322292274    1.0589931047   -1.7850781690
15   
torsion grid (30,)
C       -0.1342277772   -0.2972673349   -0.0115494855
C        0.0745915847    0.4131886397    2.4202783660
C        0.2763590029    0.7944990745    0.9542635742
C       -0.1421409764    0.0343211588   -1.5130339845
N        1.1453663673    0.6300103862   -2.0225625364
O        2.1868708844    0.2956019910   -1.4536448292
O       -0.5334593612   -1.3926022619    0.3366328618
O        1.0683368035    1.3859306038   -2.9903147383
H        0.6572718880   -0.4757634363    2.6741728956
H       -0.9749546866    0.1906814941    2.6304614318
H        0.3930533053    1.2334439336    3.0699486241
H       -0.2913935081    1.6992722245    0.6939046764
H        1.3249547573    1.0407293936    0.7526249980
H       -0.2882660169   -0.8875289895   -2.0785342763
H       -0.9328654602    0.7439934655   -1.7623994849
15   
torsion grid (45,)
C       -0.0635053362   -0.3497825742    0.0012517392
C        0.0432082516    0.4468211196    2.4106188376
C        0.4385639259    0.7101065174    0.9578588640
C       -0.0183984164   -0.0621543813   -1.5103417771
N        1.1648725887    0.7467945728   -1.9619804678
O        2.2653877709    0.4237786447   -1.5076274651
O       -0.5774008533   -1.3937423152    0.3554578768
O        0.9599693410    1.6638450443   -2.7578692192
H        0.4366293107   -0.5131506303    2.7532650281
H       -1.0437971108    0.4183896514    2.5261718551
H        0.4402330779    1.2351173115    3.0564974740
H        0.0723375020    1.6858264697    0.6089115629
H        1.5285016915    0.7567725252    0.8491242513
H        0.0376240826   -1.0117805492   -2.0443138002
H       -0.9132197179    0.4809913003   -1.8179231025
15   
torsion grid (60,)
C       -0.1152799247   -0.3302600088   -0.0076214328
C        0.0632121337    0.4956113427    2.3851867676
C        0.4671209313    0.7060605090    0.9266263354
C        0.0038739821   -0.1191552215   -1.5311391596
N        1.1159180194    0.7981157691   -1.9410966793
O        2.2578645235    0.4583100709   -1.6186838228
O       -0.7353943534   -1.3083718149    0.3620906630
O        0.8198123324    1.8291623831   -2.5477081166
H        0.3928429772   -0.4824820483    2.7438600530
H       -1.0225081639    0.5424877698    2.5051298661
H        0.5159418049    1.2668319250    3.0146992741
H        0.1654402038    1.6979214436    0.5618108325
H        1.5572968740    0.6781482428    0.8096656211
H        0.2008481777   -1.0845522002   -1.9977761047
H       -0.9257752169    0.3027753099   -1.9141051769
15   
torsion grid (75,)
C       -0.0263030310   -0.3439781001   -0.0535249725
C       -0.2694594153    0.5722936522    2.2997323364
C       -0.5484433296    0.7788185724    0.8120490207
C       -0.3413069250   -0.3427287446   -1.5664626132
N       -0.9514886416    0.9333929832   -2.0535845909
O       -0.1945722840    1.9010675730   -2.1719751366
O        0.6144900354   -1.2885645437    0.3636355866
O       -2.1673169629    0.9454282898   -2.2599460740
H        0.8038331747    0.4931270063    2.4894769556
H       -0.7377597551   -0.3457472930    2.6643298231
H       -0.6627246438    1.4150113373    2.8751693746
H       -1.6240580744    0.8832804008    0.6141267996
H       -0.1003825594    1.7121522286    0.4478319425
H        0.5907804655   -0.4869865050   -2.1121287076
H       -1.0432542285   -1.1480171967   -1.7820091461
15   
torsion grid (90,)
C       -0.1161335229   -0.3652262524   -0.0240129358
C       -0.3193343238    0.6561160184    2.2896485291
C       -0.5381664783    0.8361613423    0.7886066616
C       -0.2549620901   -0.3242056539   -1.5631823861
N       -0.9860326903    0.8802719377   -2.0642321918
O       -0.3154358119    1.8827063251   -2.3251478421
O        0.3535986170   -1.3815490545    0.4482964916
O       -2.2149383977    0.8008135634   -2.1393576035
H        0.7353585264    0.4772725698    2.5138971112
H       -0.8868658438   -0.1971871318    2.6696254375
H       -0.6411390006    1.5535431682    2.8253887391
H       -1.5925525189    1.0409289169    0.5599031155
H        0.0099951537    1.7062621312    0.4034875922
H        0.7439410513   -0.3055061507   -1.9994247344
H       -0.8049870927   -1.2058588823   -1.8887993078
15   
torsion grid (105,)
C       -0.1422785256   -0.3626772985   -0.0147859123
C       -0.3141720971    0.6839782289    2.2899037871
C       -0.5744921551    0.8390580775    0.7925734000
C       -0.2069754646   -0.3013313734   -1.5570683871
N       -0.9332572487    0.8954469824   -2.0863232815
O       -0.2599345381    1.8082957444   -2.5699282571
O        0.2913455349   -1.3905715252    0.4674373073
O       -2.1627372209    0.8907269353   -1.9784296937
H        0.7506912377    0.5408909323    2.4917091191
H       -0.8454243038   -0.1823002266    2.6917725438
H       -0.6518019327    1.5768776623    2.8234693382
H       -1.6397587318    1.0064781501    0.5882105483
H       -0.0642179080    1.7218363316    0.3834047533
H        0.8076108716   -0.2737336586   -1.9538311577
H       -0.7362882942   -1.1843161619   -1.9144488718
15   
torsion grid (120,)
C       -0.1671478911   -0.3858241041   -0.0219026858
C       -0.2822949076    0.6424769544    2.2956659901
C       -0.5268037587    0.8317634996    0.7993437975
C       -0.1266631425   -0.2660577023   -1.5588846907
N       -0.9450395771    0.8626360817   -2.1105772986
O       -0.3639010790    1.7313007089   -2.7634763213
O        0.1541816091   -1.4573707312    0.4540748654
O       -2.1559864009    0.8319593309   -1.8744451768
H        0.7688229119    0.4204893959    2.4988513875
H       -0.8761436100   -0.1874947403    2.6860616060
H       -0.5566728837    1.5512870501    2.8386231094
H       -1.5797793984    1.0629468342    0.5962702228
H        0.0355908575    1.6881792290    0.4018451137
H        0.9024031299   -0.1118403454   -1.8848760923
H       -0.5260977839   -1.1847602326   -1.9887554809
15   
torsion grid (135,)
C       -0.2132672704   -0.3939142500   -0.0154666002
C       -0.2831121993    0.5942619977    2.3231768125
C       -0.5046632623    0.8274896945    0.8290796329
C       -0.0993660591   -0.2287126647   -1.5416970370
N       -0.9969900042    0.8222926130   -2.1310258728
O       -0.5099170740    1.5923216003   -2.9594870689
O        0.0141761505   -1.4970133466    0.4437002190
O       -2.1764500975    0.8103672756   -1.7693523059
H        0.7541909474    0.3177753155    2.5310972533
H       -0.9198737537   -0.2144913323    2.6895476524
H       -0.5191086195    1.5030463934    2.8840732426
H       -1.5404007465    1.1243604429    0.6260946608
H        0.1112007533    1.6565225802    0.4529210028
H        0.9237963678    0.0332941504   -1.8151338300
H       -0.3787806647   -1.1699359199   -2.0169108295
15   
torsion grid (150,)
C       -0.2338407397   -0.3273617340   -0.0619080461
C       -0.3294570372    0.5573194899    2.3185817089
C       -0.4372782797    0.8800543974    0.8286343419
C       -0.0721243187   -0.0973378129   -1.5735336411
N       -1.0900847386    0.8306436506   -2.1838893171
O       -0.7337917530    1.4887428067   -3.1608103707
O       -0.1082294739   -1.4627448985    0.3573964859
O       -2.2234057641    0.8237214892   -1.6981117338
H        0.6559215689    0.1532366368    2.5660815823
H       -1.0738350947   -0.1878041795    2.6096134388
H       -0.4933516866    1.4612775945    2.9121103158
H       -1.4187826042    1.3043461206    0.5883642761
H        0.2917587907    1.6462220521    0.5287553961
H        0.9095916381    0.3203719794   -1.8037562739
H       -0.1916725235   -1.0504819688   -2.0912533522
15   
torsion grid (165,)
C       -0.0945608542   -0.2963791054   -0.0911352207
C       -0.4634855831    0.5619240590    2.2749640727
C       -0.1764761385    0.9133675698    0.8161354518
C        0.0347746957   -0.0341156777   -1.5991110265
N       -1.2083719584    0.5903199172   -2.1878705245
O       -1.0976351339    1.0910181751   -3.3052586710
O       -0.0590551917   -1.4438619805    0.3113488298
O       -2.2477948154    0.5244280952   -1.5287481441
H        0.2993722763   -0.1102761247    2.6752308488
H       -1.4299495209    0.0593594789    2.3681099650
H       -0.4853478299    1.4689225947    2.8858596011
H       -0.9311839232    1.5997732002    0.4166279596
H        0.7837842915    1.4423670621    0.7207474379
H        0.8572159377    0.6414431001   -1.8417193037
H        0.1691022173   -0.9799287880   -2.1262512617
15   
torsion grid (180,)
C       -0.1043047617   -0.2308673679   -0.0780749154
C       -0.4648900062    0.5965937772    2.3001097776
C       -0.1312313058    0.9603724448    0.8546204354
C        0.0572522982    0.0575846557   -1.5781256030
N       -1.2261792190    0.5560906360   -2.2050299069
O       -1.1806574998    0.8105510830   -3.4063084690
O       -0.1504149709   -1.3878133913    0.2958045545
O       -2.2199919115    0.6609977136   -1.4842289042
H        0.2513421441   -0.1259676940    2.6990569207
H       -1.4595009583    0.1473771934    2.3652980911
H       -0.4470475208    1.4903046489    2.9304309461
H       -0.8382105525    1.6952711414    0.4530512303
H        0.8592299823    1.4355269526    0.7866887143
H        0.8032075169    0.8277651401   -1.7869910283
H        0.3145162953   -0.8569563393   -2.1129593277
