26   
torsion grid (-105,)
C        0.3054763345   -0.4760749903   -0.3027935031
C        7.4788408297   -0.2934909483    4.8628410624
C        1.4855103235    0.2349795449   -0.0396963294
C       -0.1502682018   -1.4199950807    0.6243853679
C        6.9826691366   -0.7734599116    3.6419063533
C        6.5858923998    0.1948626327    5.8233187231
C        2.2009119524    0.0016100653    1.1313918043
C        0.5609130762   -1.6517986781    1.8020164680
C        5.6144889941   -0.7601994778    3.3855961451
C        5.2136972994    0.2034510721    5.5714711280
C        1.7419224613   -0.9349450532    2.0873300329
C        4.6975726388   -0.2883289894    4.3541999888
C        2.4376107592   -1.1515488279    3.3572842828
C        3.2500809778   -0.3257622657    4.1367698206
H       -0.2548878384   -0.2895507109   -1.2150507660
H        8.5465793662   -0.3085425283    5.0646596778
H        1.8423460389    0.9749558367   -0.7519351279
H       -1.0649313101   -1.9745194258    0.4303948742
H        7.6688664449   -1.1610640601    2.8928417746
H        6.9604423340    0.5670306760    6.7735489818
H        3.1046053345    0.5688618761    1.3402336943
H        0.1947400621   -2.3819169131    2.5205322825
H        5.2330207857   -1.1510667389    2.4455436948
H        4.5272117189    0.5779467386    6.3276962497
H        1.6763077162   -1.5822144867    4.0191976831
H        2.8185172641   -0.2978833426    5.1448159136
26   
torsion grid (-90,)
C        0.5404029011   -0.4786652942   -0.3099323163
C        7.4017299516   -0.2371690555    4.6478139770
C        1.6998211213    0.2158647949    0.0642967589
C       -0.0154702929   -1.4133019940    0.5702324901
C        6.8082214438   -0.7407065497    3.4812382492
C        6.5895313666    0.2353362740    5.6842955957
C        2.2963430681   -0.0240675560    1.2993708508
C        0.5787348134   -1.6527572128    1.8100949275
C        5.4221045392   -0.7676352239    3.3518192186
C        5.1999853148    0.2059033134    5.5580001819
C        1.7370593899   -0.9534905123    2.2057635325
C        4.5882069783   -0.3088180052    4.3969369079
C        2.3031600238   -1.1803301584    3.5392701511
C        3.1259303864   -0.3847067319    4.3186141138
H        0.0732896202   -0.2866581636   -1.2722330738
H        8.4836675028   -0.2214807396    4.7489974642
H        2.1335649339    0.9495202529   -0.6108229096
H       -0.9152713967   -1.9554154633    0.2905301219
H        7.4326943869   -1.1169272530    2.6746010590
H        7.0398316345    0.6256642764    6.5934993962
H        3.1822202673    0.5338278173    1.5914214310
H        0.1367579996   -2.3773532972    2.4905681582
H        4.9688989798   -1.1794362830    2.4538487481
H        4.5755083814    0.5702798952    6.3708222303
H        1.5015985415   -1.5959493623    4.1593659145
H        2.7502602496   -0.3667796313    5.3473557828
26   
torsion grid (-75,)
C        0.7540230947   -0.4733927129   -0.3064281631
C        7.3250527442   -0.1960841359    4.4524776366
C        1.8603136139    0.2407452095    0.1749402196
C        0.1407369987   -1.4255146856    0.5145375932
C        6.6569716551   -0.7626129533    3.3578116579
C        6.5827762470    0.2982046197    5.5301458523
C        2.3510848172    0.0024159220    1.4565582368
C        0.6294137044   -1.6629527755    1.8002146515
C        5.2657736283   -0.8285454630    3.3374928259
C        5.1888188931    0.2296761951    5.5124384824
C        1.7372676954   -0.9493027778    2.3005719490
C        4.5026515865   -0.3418680499    4.4217921880
C        2.1831589554   -1.1832367532    3.6795210061
C        3.0394930795   -0.4517756168    4.4675249242
H        0.3710960747   -0.2825560156   -1.3054787920
H        8.4107518168   -0.1493563803    4.4672875482
H        2.3360199081    0.9904945469   -0.4525461225
H       -0.7201559041   -1.9823371162    0.1531570986
H        7.2268498110   -1.1592341844    2.5210915715
H        7.0906701631    0.7359593004    6.3858333634
H        3.1942925367    0.5781682363    1.8272133524
H        0.1438047757   -2.4016385291    2.4342990077
H        4.7597768438   -1.2905788997    2.4946607983
H        4.6188248935    0.6118482251    6.3565888548
H        1.3494755662   -1.5890354394    4.2595227692
H        2.7135505293   -0.4378879045    5.5113991482
26   
torsion grid (-60,)
C        0.9425681514   -0.4619153090   -0.2889927960
C        7.2458925499   -0.1707667088    4.2820968748
C        1.9806554769    0.2851005713    0.2846774946
C        0.2966684568   -1.4392895243    0.4749012034
C        6.5245135020   -0.8108515724    3.2649109839
C        6.5613880866    0.3571817010    5.3815076920
C        2.3751435117    0.0530992358    1.6006531743
C        0.6887707726   -1.6690778904    1.7948570783
C        5.1370884236   -0.9144194193    3.3394186107
C        5.1716621117    0.2499106694    5.4587820476
C        1.7331479940   -0.9291373746    2.3847271358
C        4.4319355419   -0.3872669166    4.4424122412
C        2.0722486176   -1.1659132853    3.7954249499
C        2.9765779326   -0.5276295842    4.5951058519
H        0.6360351411   -0.2762060729   -1.3150434630
H        8.3283466305   -0.0943220566    4.2214294082
H        2.4785000507    1.0570206161   -0.2970617074
H       -0.5140265844   -2.0208289125    0.0431921251
H        7.0498554901   -1.2371257745    2.4137756862
H        7.1103229497    0.8503322907    6.1797925129
H        3.1662922189    0.6536339087    2.0388823093
H        0.1780470416   -2.4275390884    2.3844385487
H        4.5932247989   -1.4314580856    2.5548818897
H        4.6466398757    0.6584884712    6.3196724604
H        1.2071335848   -1.5545952805    4.3371766333
H        2.7003734277   -0.5245649194    5.6518434182
26   
torsion grid (-45,)
C        1.1177198755   -0.4487630357   -0.2699502094
C        7.1700520886   -0.1492644331    4.1238721689
C        2.0818353723    0.3343239481    0.3791567672
C        0.4528883513   -1.4503352334    0.4443977135
C        6.4146523757   -0.8635060762    3.1840044094
C        6.5314513908    0.4126375317    5.2337778341
C        2.3869211795    0.1129974562    1.7208406842
C        0.7551257958   -1.6682666184    1.7901232985
C        5.0374769541   -1.0057500791    3.3429434256
C        5.1523747504    0.2658882717    5.3961325902
C        1.7308570975   -0.8981440598    2.4529210949
C        4.3782740124   -0.4382307801    4.4529873701
C        1.9778088948   -1.1317106823    3.8850712296
C        2.9363943821   -0.6092103378    4.6942720257
H        0.8814852456   -0.2717325829   -1.3159839098
H        8.2441674969   -0.0425133389    3.9965381231
H        2.5914440082    1.1268602773   -0.1633143973
H       -0.3029181046   -2.0592154943   -0.0453080963
H        6.9054300177   -1.3185733113    2.3271957442
H        7.1074581333    0.9619888479    5.9741925601
H        3.1227107558    0.7391799892    2.2151247620
H        0.2300054266   -2.4458585369    2.3409490589
H        4.4681471981   -1.5769506667    2.6166882095
H        4.6627146411    0.7012119197    6.2647970243
H        1.0875517800   -1.4941836738    4.4011949891
H        2.6984451626   -0.6267228605    5.7588681121
26   
torsion grid (-30,)
C        1.2669218233   -0.4418181142   -0.2449142946
C        7.0969560499   -0.1315734042    3.9925249761
C        2.1656638617    0.3730920752    0.4561727235
C        0.5857821523   -1.4566368805    0.4344110234
C        6.3232390193   -0.9042108023    3.1163309132
C        6.4933721537    0.4490515065    5.1122822920
C        2.3925335145    0.1689420770    1.8163858001
C        0.8089120227   -1.6562662286    1.7986441763
C        4.9602748359   -1.0838916142    3.3473741397
C        5.1290369217    0.2630572368    5.3463322115
C        1.7244378958   -0.8588768039    2.5116157476
C        4.3346722739   -0.4932927233    4.4635838558
C        1.8974725116   -1.0806793418    3.9581578725
C        2.9080083982   -0.6951203734    4.7726561427
H        1.0923277447   -0.2788620207   -1.3052799201
H        8.1595224540    0.0055670339    3.8093349516
H        2.6852727699    1.1767555961   -0.0597503259
H       -0.1212843428   -2.0892380275   -0.0963356032
H        6.7879403514   -1.3752346927    2.2536381323
H        7.0849738578    1.0426169815    5.8047455322
H        3.0797890531    0.8168480906    2.3505838113
H        0.2720767427   -2.4443513941    2.3226321112
H        4.3758315105   -1.6970615762    2.6692107620
H        4.6664407807    0.7133799244    6.2221422310
H        0.9867192693   -1.4142215663    4.4560672660
H        2.6996997232   -0.7394929632    5.8418962783
26   
torsion grid (-15,)
C        1.3741736258   -0.4496743388   -0.2225841080
C        7.0367007616   -0.1081116608    3.9033591846
C        2.2341342978    0.3857905852    0.5019021187
C        0.6709429496   -1.4574185900    0.4447655838
C        6.2589947493   -0.9148313440    3.0626442039
C        6.4543171646    0.4645854828    5.0383877468
C        2.4021845684    0.2070779056    1.8746700529
C        0.8341208005   -1.6301538687    1.8214475387
C        4.9108083951   -1.1346302095    3.3432592343
C        5.1056081690    0.2370331492    5.3228274644
C        1.7150093164   -0.8157121425    2.5569132819
C        4.3061055055   -0.5490439673    4.4725032464
C        1.8378594339   -1.0165494031    4.0133618843
C        2.8927862703   -0.7840491479    4.8243813658
H        1.2458348164   -0.3081745458   -1.2926264344
H        8.0871196215    0.0617312485    3.6814203528
H        2.7698845779    1.1844827542   -0.0051211034
H       -0.0073877399   -2.1051401923   -0.1049249308
H        6.7082794985   -1.3801395774    2.1887805716
H        7.0504364555    1.0837775555    5.7040279587
H        3.0618994919    0.8681022207    2.4271720917
H        0.2805781929   -2.4129299898    2.3358553892
H        4.3215093986   -1.7710201943    2.6911939442
H        4.6593127666    0.6814325275    6.2100109613
H        0.9109666247   -1.3158758671    4.5023253652
H        2.7052870567   -0.8618951476    5.8952038244
26   
torsion grid (0,)
C        1.5112721353   -0.9322177198   -0.2475436529
C        6.9066473194    0.3761972968    3.9201875151
C        2.6707507572   -1.4385000087    0.3531742235
C        0.4623880034   -0.4758787003    0.5569261781
C        5.8430380496    0.9159958269    3.1860849027
C        6.6403980143   -0.5248807571    4.9559207352
C        2.7887533878   -1.4732333223    1.7426534912
C        0.5777619707   -0.5200853392    1.9486753117
C        4.5285761909    0.5469698090    3.4721426518
C        5.3225867423   -0.8862081900    5.2476276839
C        1.7490730838   -0.9973975786    2.5639649665
C        4.2476907280   -0.3753099220    4.4980038627
C        1.8227909709   -1.0366420120    4.0384182388
C        2.8700845577   -0.7758788414    4.8486845513
H        1.4227380790   -0.9047732628   -1.3305538669
H        7.9301389327    0.6641007962    3.6941771029
H        3.4830888080   -1.8135816397   -0.2643896572
H       -0.4467852322   -0.0910765791    0.1017737613
H        6.0392344002    1.6322496552    2.3920711867
H        7.4571542310   -0.9418362670    5.5397803064
H        3.6875006314   -1.8765381450    2.1978446280
H       -0.2434562408   -0.1683657457    2.5695979609
H        3.7113536412    0.9787076884    2.9035127427
H        5.1213104927   -1.5838299697    6.0578409532
H        0.8792010379   -1.2702363525    4.5314285986
H        2.6996999381   -0.9184341765    5.9157128437
26   
torsion grid (15,)
C        1.4817645880   -0.9928334112   -0.2504598434
C        6.9060089602    0.4273196371    3.9650657309
C        2.6376255643   -1.4928768758    0.3630265347
C        0.4441783734   -0.4920518281    0.5420533384
C        5.8331450489    0.9552881409    3.2352500001
C        6.6568901432   -0.5080301203    4.9742650079
C        2.7631264103   -1.4787273359    1.7517922365
C        0.5672655378   -0.4856689522    1.9336181520
C        4.5275680721    0.5423969748    3.4991785134
C        5.3477300018   -0.9148086051    5.2431865637
C        1.7339080733   -0.9599928156    2.5614267580
C        4.2634147449   -0.4129855692    4.4998281520
C        1.8115439923   -0.9581212391    4.0346709969
C        2.8948955531   -0.8509443998    4.8343587577
H        1.3875036595   -1.0047796655   -1.3332597248
H        7.9225035282    0.7508353524    3.7563535806
H        3.4410036278   -1.9022347332   -0.2444351147
H       -0.4619586313   -0.1111876578    0.0776395442
H        6.0154727329    1.6976472812    2.4621630711
H        7.4802491000   -0.9168709134    5.5545750336
H        3.6580718591   -1.8797594999    2.2162267552
H       -0.2453489838   -0.0991586255    2.5452254903
H        3.7036685427    0.9674495119    2.9353083402
H        5.1598192248   -1.6392786506    6.0328685237
H        0.8624008268   -1.1562579412    4.5323861517
H        2.7297639693   -1.0291174986    5.8968325757
26   
torsion grid (30,)
C        1.3914044611   -1.0453327007   -0.2813596029
C        6.9538829694    0.4654607425    4.0550049734
C        2.5730173302   -1.5058992664    0.3144651802
C        0.3708191640   -0.5308021907    0.5242178373
C        5.8968861979    0.9681057357    3.2846522785
C        6.6900820097   -0.4829013450    5.0481359978
C        2.7398971175   -1.4410349354    1.6969474433
C        0.5363098375   -0.4721505947    1.9098414320
C        4.5936783413    0.5194054982    3.4935343717
C        5.3831322302   -0.9271178075    5.2610563989
C        1.7261981986   -0.9118630881    2.5206778165
C        4.3141484509   -0.4465832067    4.4808885410
C        1.8400560512   -0.8673684764    3.9892318238
C        2.9466135953   -0.9145485901    4.7680348605
H        1.2649026596   -1.0983265522   -1.3595998771
H        7.9684895088    0.8184431680    3.8895048143
H        3.3640564354   -1.9251470174   -0.3024095128
H       -0.5544719145   -0.1793492512    0.0746257296
H        6.0900117324    1.7197805873    2.5232501150
H        7.5002943474   -0.8732173111    5.6588938923
H        3.6537406922   -1.8150846138    2.1468870146
H       -0.2635253444   -0.0752996160    2.5316225908
H        3.7821876652    0.9280186077    2.9002495431
H        5.1836932892   -1.6614987636    6.0387112269
H        0.8913611068   -1.0298589147    4.5013045813
H        2.7762440298   -1.1300299952    5.8231113713
26   
torsion grid (45,)
C        1.2551776754   -1.0936366186   -0.3196880558
C        7.0258180191    0.4921942137    4.1834014548
C        2.4825261309   -1.4883421016    0.2297521407
C        0.2561660786   -0.5920890020    0.5204981028
C        6.0095540799    0.9580458829    3.3382640423
C        6.7201612646   -0.4499960453    5.1704842902
C        2.7144319775   -1.3729763655    1.5990870149
C        0.4869769284   -0.4816533847    1.8931678099
C        4.7066915240    0.4808689741    3.4687076122
C        5.4135576400   -0.9238698432    5.3043576371
C        1.7200035889   -0.8619258656    2.4585792446
C        4.3839274346   -0.4750472825    4.4540180336
C        1.8966040256   -0.7745880424    3.9171639790
C        3.0129790596   -0.9659111252    4.6681210143
H        1.0778636982   -1.1868456430   -1.3879532434
H        8.0402476600    0.8682455669    4.0793057061
H        3.2586624365   -1.8957616805   -0.4134527653
H       -0.7031234849   -0.2903457551    0.1075703253
H        6.2344719466    1.7035465991    2.5794946424
H        7.4979408669   -0.8129341046    5.8376656475
H        3.6629770065   -1.6996939771    2.0130069145
H       -0.2966737862   -0.0956465501    2.5417868624
H        3.9262837375    0.8642603280    2.8192570069
H        5.1816327767   -1.6528635343    6.0780465412
H        0.9548627197   -0.9042448147    4.4525030467
H        2.8262844073   -1.2175101009    5.7131655974
26   
torsion grid (60,)
C        1.0930453527   -1.1545784682   -0.3423754288
C        7.0892193113    0.5196242302    4.3435342940
C        2.3683272398   -1.4752592953    0.1429892355
C        0.1231117963   -0.6725213709    0.5423908095
C        6.1308668147    0.9475177876    3.4144225404
C        6.7289077091   -0.4119520969    5.3224755372
C        2.6742500208   -1.3080766369    1.4919593524
C        0.4282260054   -0.5090466872    1.8948129729
C        4.8319684433    0.4451786758    3.4557558907
C        5.4265342441   -0.9125529396    5.3672925105
C        1.7067097692   -0.8232038919    2.3977489823
C        4.4529897832   -0.4949115100    4.4377737576
C        1.9637541020   -0.6898893318    3.8390279493
C        3.0798239955   -1.0052616119    4.5598596365
H        0.8574745514   -1.2887939927   -1.3948600939
H        8.1006515331    0.9159343817    4.3093133684
H        3.1240784582   -1.8645381963   -0.5348263520
H       -0.8715414186   -0.4262256355    0.1793541249
H        6.3985188128    1.6824780883    2.6592295031
H        7.4616959786   -0.7466721323    6.0523848007
H        3.6593824299   -1.5806024930    1.8577895420
H       -0.3332572600   -0.1384476596    2.5778117388
H        4.0942040978    0.8012395121    2.7433236045
H        5.1520831651   -1.6331017942    6.1348978158
H        1.0348526208   -0.7909884663    4.4046329399
H        2.8674332583   -1.2895630590    5.5928412726
26   
torsion grid (75,)
C        0.9116469005   -1.2277548716   -0.3566262876
C        7.1496561837    0.5520165199    4.5273524590
C        2.2319369820   -1.4750856278    0.0448933901
C       -0.0162156505   -0.7630063588    0.5812754051
C        6.2680399023    0.9476066910    3.5115573730
C        6.7223793201   -0.3706412684    5.4879408941
C        2.6209754347   -1.2549128103    1.3641282223
C        0.3719196745   -0.5453407863    1.9042158490
C        4.9788447862    0.4235289090    3.4526493090
C        5.4296899209   -0.8940717597    5.4321686714
C        1.6939259688   -0.7944052777    2.3251059570
C        4.5298466696   -0.5020858754    4.4204583107
C        2.0476184759   -0.6125262770    3.7387198535
C        3.1587505241   -1.0277271660    4.4319157970
H        0.6098377397   -1.4039104020   -1.3857166634
H        8.1537184212    0.9654547373    4.5728579513
H        2.9567785285   -1.8470516021   -0.6751181718
H       -1.0436378092   -0.5716430008    0.2819962205
H        6.5887134523    1.6727441116    2.7675777110
H        7.3964284769   -0.6813132816    6.2822454835
H        3.6406603195   -1.4719753074    1.6689729627
H       -0.3571342409   -0.1884766168    2.6285672927
H        4.2967887414    0.7545965002    2.6748099075
H        5.1032309924   -1.6075022971    6.1858478262
H        1.1381506378   -0.6904677836    4.3412464541
H        2.9110306194   -1.3406698376    5.4502217627
26   
torsion grid (90,)
C        0.7207383361   -1.3056304111   -0.3744099083
C        7.2161636308    0.5877713080    4.7203480796
C        2.0766881917   -1.4989505352   -0.0732072851
C       -0.1453934828   -0.8404382682    0.6209048096
C        6.4251224891    0.9719891704    3.6279542264
C        6.7146707160   -0.3394778696    5.6400959813
C        2.5596063816   -1.2270775963    1.2041463317
C        0.3356882364   -0.5707150541    1.9028873982
C        5.1526145965    0.4334310025    3.4563106950
C        5.4380836810   -0.8777185139    5.4718204376
C        1.6934092720   -0.7720622266    2.2244130594
C        4.6259615598   -0.4921038878    4.3859702806
C        2.1578768068   -0.5400481178    3.5956724007
C        3.2656157887   -1.0267298870    4.2692690564
H        0.3444575504   -1.5229856774   -1.3705273972
H        8.2072081091    1.0127820237    4.8555452547
H        2.7546344713   -1.8676858558   -0.8391027191
H       -1.1986126700   -0.6893761638    0.3980367623
H        6.8045677237    1.6979906633    2.9130305473
H        7.3190355292   -0.6423065464    6.4914504523
H        3.6072489647   -1.3999647369    1.4363243389
H       -0.3457752433   -0.2143772611    2.6723497248
H        4.5369270007    0.7523592863    2.6193210142
H        5.0538960752   -1.5941146382    6.1947298375
H        1.2779463892   -0.6023547209    4.2449920637
H        2.9682190592   -1.3621732377    5.2686734438
26   
torsion grid (105,)
C        0.5117018525   -1.4074912651   -0.3758122813
C        7.2677441035    0.6364763426    4.9416588488
C        1.8891307386   -1.5902387860   -0.1846274095
C       -0.2664283203   -0.8981326433    0.6698876374
C        6.5718142533    1.0495145585    3.7960741154
C        6.6995857159   -0.3277956486    5.7817718746
C        2.4785756054   -1.2640433339    1.0335970089
C        0.3209344272   -0.5761507678    1.8936639379
C        5.3278663881    0.5024261996    3.4941165504
C        5.4503969995   -0.8733257906    5.4848067960
C        1.7020795474   -0.7673015082    2.1067265156
C        4.7316165604   -0.4582312160    4.3443745319
C        2.2851948988   -0.4799937803    3.4189438274
C        3.3957677327   -0.9998911821    4.0864691742
H        0.0510348532   -1.6672577014   -1.3251880587
H        8.2363941671    1.0678927206    5.1795716153
H        2.4995241285   -1.9919912456   -0.9897458774
H       -1.3351706184   -0.7548256796    0.5320131270
H        7.0034519628    1.8033076962    3.1421043032
H        7.2304060675   -0.6528457173    6.6730240784
H        3.5430822087   -1.4256794779    1.1841752383
H       -0.2934373964   -0.1878266336    2.7030557377
H        4.7829298999    0.8396291640    2.6158597566
H        5.0133062252   -1.6168764887    6.1477256473
H        1.4366695845   -0.5210687805    4.1130358327
H        3.0514227057   -1.3618153179    5.0631387797
