27   
torsion grid (-165,)
C        1.4631709083   -0.8674446356    2.4322049549
C        1.1951901984   -1.8825986418    3.3419966536
C       -0.2440635416   -1.6559407769    0.8650975382
C       -1.0900262058    3.2583874942   -0.1993175398
C       -0.0850462277    2.4383160118   -0.6648164245
C       -0.8613535704    1.7100286991    1.2726861831
C        0.7580864994   -0.7492871856    1.2050648082
C        0.1861047284   -2.7996730034    3.0067985031
C       -0.5157042975   -2.6759453219    1.7871637156
C       -2.3964794270   -4.0981164135    0.8299437633
C        1.0783336774    0.3932082859    0.2669205485
N       -1.5685470478    2.7948082883    1.0084575052
N       -0.3099094812   -3.8960953178    3.6869530232
N       -1.2492004232   -4.4302118083    2.9695058753
N        0.0481324972    1.4371940408    0.2818547757
N       -1.3996675587   -3.7168815035    1.8116255264
H        2.2317649924   -0.1341141487    2.6619032376
H        1.7373267474   -1.9682197065    4.2787069502
H       -0.7946243527   -1.5565402166   -0.0667312336
H       -1.4960128370    4.1463063838   -0.6673366947
H        0.5260139457    2.4657879133   -1.5565082762
H       -0.9673207126    1.0828161250    2.1471268865
H       -1.9204547671   -4.3374140509   -0.1258919670
H       -2.9110725942   -4.9805045261    1.2100801132
H       -3.1188005788   -3.2892406905    0.6842385702
H        2.0423961421    0.8373039500    0.5358248858
H        1.1612957327    0.0269604060   -0.7611296818
27   
torsion grid (-150,)
C        0.3256464236   -0.3425852613    1.8978517802
C        0.1476393375   -1.0249133102    3.0950425730
C       -0.4520261112   -2.2398342381    0.5606606875
C       -2.0160132509   -0.0260300699   -3.4136612815
C       -0.7225538536   -0.1128364340   -2.9474691985
C       -2.1640156106   -0.1260407595   -1.2720510249
C        0.0346795064   -0.9363675895    0.6414621473
C       -0.3436430209   -2.3380047551    3.0228904729
C       -0.6376330790   -2.9216509431    1.7707581277
C       -1.5550488874   -5.2291431693    1.2152418089
C        0.2917701390   -0.1465826329   -0.6268288539
N       -2.9075945964   -0.0361681739   -2.3601640583
N       -0.6344358235   -3.2579242212    4.0128881387
N       -1.0770395463   -4.3385818659    3.4481760414
N       -0.8256007740   -0.1942189584   -1.5690237122
N       -1.0925356601   -4.1692360847    2.0902487889
H        0.6939513488    0.6799422422    1.9181307983
H        0.3689001442   -0.5643055357    4.0529759068
H       -0.6902626394   -2.6888619451   -0.3994444288
H       -2.3522489017    0.0361433637   -4.4408136682
H        0.2348373194   -0.1337805410   -3.4495304232
H       -2.5302139924   -0.1599497426   -0.2545796495
H       -0.7570008912   -5.5382289524    0.5333219943
H       -1.8424358226   -6.0720552346    1.8436139387
H       -2.4199750460   -4.8951537943    0.6342509081
H        0.5142914578    0.8960230837   -0.3759350832
H        1.1685084106   -0.5479260581   -1.1455798362
27   
torsion grid (-135,)
C        0.4283261243   -0.3564675964    1.9671965153
C        0.3367527402   -1.1118747692    3.1287348491
C       -0.5073371607   -2.1454634555    0.5830261060
C       -1.9412068351   -0.3184606108   -3.4264771130
C       -0.6737432066   -0.2980728346   -2.8867959081
C       -2.2041439578   -0.0854765909   -1.3065870662
C        0.0161368399   -0.8608531686    0.7046018092
C       -0.1912823793   -2.4085998216    3.0164424189
C       -0.6049423372   -2.9015400637    1.7599060182
C       -1.6210532087   -5.1488058633    1.1364527708
C        0.2017135745    0.0102225260   -0.5245902571
N       -2.8888296078   -0.1857341325   -2.4313897058
N       -0.4207482198   -3.3855120921    3.9667259578
N       -0.9367683514   -4.4178796555    3.3739953226
N       -0.8508686269   -0.1611731718   -1.5203925247
N       -1.0635227826   -4.1576247617    2.0363256909
H        0.8222333045    0.6555950416    2.0208420802
H        0.6494189672   -0.7189049920    4.0913623135
H       -0.8359404777   -2.5274256653   -0.3789310938
H       -2.2219685182   -0.4233730297   -4.4666275428
H        0.3101162666   -0.3723911605   -3.3288853087
H       -2.6238864033    0.0265598901   -0.3151512897
H       -0.8843152955   -5.4381319160    0.3808236541
H       -1.8905295026   -6.0199573150    1.7334529042
H       -2.5134640741   -4.7551813902    0.6407705493
H        0.2583123995    1.0630229417   -0.2277081740
H        1.1502040518   -0.2345875079   -1.0130300659
27   
torsion grid (-120,)
C        0.5089520654   -0.3622709054    2.0109539819
C        0.4873715973   -1.1718238317    3.1377851724
C       -0.5550169798   -2.0667977970    0.6118380200
C       -1.8495207061   -0.5653133156   -3.3946406979
C       -0.6155553262   -0.4540719205   -2.7915728399
C       -2.2355719585   -0.0258616922   -1.3508621435
C       -0.0023214692   -0.7984698938    0.7579100406
C       -0.0701893603   -2.4547570949    3.0017311132
C       -0.5804356283   -2.8785738435    1.7562641749
C       -1.6752267033   -5.0778600460    1.0977701181
C        0.1128373216    0.1393257768   -0.4320362687
N       -2.8535646573   -0.2956756099   -2.4862524512
N       -0.2475414825   -3.4741455121    3.9173676387
N       -0.8219618938   -4.4691599877    3.3138823603
N       -0.8723585014   -0.1136410657   -1.4744311146
N       -1.0389117581   -4.1404900640    2.0031352020
H        0.9246246653    0.6401437921    2.0840826015
H        0.8756727263   -0.8314561608    4.0929214624
H       -0.9551888879   -2.3988562909   -0.3411651052
H       -2.0690852674   -0.8192481652   -4.4236970008
H        0.3926883464   -0.5831331752   -3.1598199593
H       -2.7119081676    0.2247675745   -0.4112646609
H       -0.9991217017   -5.3375098324    0.2774897401
H       -1.9153829692   -5.9746822028    1.6686995692
H       -2.5940928662   -4.6484022358    0.6875947592
H        0.0247922219    1.1773695076   -0.0940898783
H        1.1022759363    0.0398008511   -0.8887586609
27   
torsion grid (-105,)
C        0.5593387743   -0.3626982603    2.0258899858
C        0.6010468591   -1.2170576917    3.1175844044
C       -0.6205360965   -1.9943296505    0.6322354621
C       -1.7628191583   -0.7704698615   -3.3446881490
C       -0.5706044608   -0.5811476523   -2.6798706079
C       -2.2794186094    0.0371134960   -1.4223364047
C       -0.0420345381   -0.7405547906    0.7928942644
C        0.0173689654   -2.4875059201    2.9668830795
C       -0.5796764646   -2.8533324608    1.7424381625
C       -1.7428453216   -5.0118463942    1.0671754570
C       -0.0041158787    0.2582419126   -0.3530279200
N       -2.8230105416   -0.3806796710   -2.5507484071
N       -0.1109140373   -3.5426892476    3.8491176519
N       -0.7365157473   -4.5062072162    3.2447125567
N       -0.9116634915   -0.0605139333   -1.4433484555
N       -1.0359274534   -4.1201130636    1.9663600978
H        0.9952961666    0.6304024175    2.1105118059
H        1.0584398090   -0.9216175563    4.0569892749
H       -1.0845920945   -2.2850164196   -0.3049406824
H       -1.9154003845   -1.1549753502   -4.3449609322
H        0.4588959267   -0.7585531709   -2.9581816557
H       -2.8144327724    0.4119954994   -0.5584235807
H       -1.1257177792   -5.2436192845    0.1938104615
H       -1.9569411561   -5.9293224765    1.6151919727
H       -2.6807315992   -4.5557081616    0.7366305206
H       -0.2413502650    1.2590690272    0.0228325285
H        1.0069290121    0.3121282330   -0.7681512449
27   
torsion grid (-90,)
C        0.6424434287   -0.3839656323    2.0177153944
C        0.7703921603   -1.2796697048    3.0681305184
C       -0.6935619304   -1.9423697803    0.6822066562
C       -1.6401550111   -0.9517922275   -3.2827846285
C       -0.5101776557   -0.6884079577   -2.5390557477
C       -2.3201235973    0.0570340875   -1.5134575631
C       -0.0807537259   -0.7046607522    0.8341168429
C        0.1528049332   -2.5355410737    2.9257307437
C       -0.5619226692   -2.8454433713    1.7503459454
C       -1.8108478237   -4.9639188532    1.1018357550
C       -0.1540371454    0.3530084253   -0.2567931653
N       -2.7645271753   -0.4810889966   -2.6339805509
N        0.0942133079   -3.6243881449    3.7734770397
N       -0.5993134666   -4.5563667186    3.1937255447
N       -0.9558980875   -0.0331637574   -1.4041541915
N       -1.0121596351   -4.1157260711    1.9656782879
H        1.1060327545    0.5972707834    2.0953731252
H        1.3224642270   -1.0287256774    3.9688235712
H       -1.2445544419   -2.1933899196   -0.2183651072
H       -1.7055423489   -1.4397965632   -4.2468058771
H        0.5380542819   -0.8979609906   -2.7004770220
H       -2.9263054920    0.5250830872   -0.7473181485
H       -1.2869661514   -5.1518897839    0.1598341008
H       -1.9709473826   -5.9071130757    1.6240128989
H       -2.7761263028   -4.4940129416    0.8909797135
H       -0.5710203712    1.2780777176    0.1551093491
H        0.8526963190    0.5959388784   -0.6108027023
27   
torsion grid (-75,)
C        0.7024596963   -0.4227532979    1.9645530874
C        0.9155602202   -1.3608620467    2.9633695369
C       -0.7944269353   -1.9040759430    0.7149053018
C       -1.4516521364   -1.0335018640   -3.2823672651
C       -0.4203204189   -0.7455756467   -2.4150965899
C       -2.3248573035    0.1055335800   -1.6858759284
C       -0.1433504710   -0.6836127498    0.8501252388
C        0.2617806903   -2.5996155137    2.8370091680
C       -0.5724161416   -2.8511799626    1.7279745113
C       -1.9119756891   -4.9263290231    1.1225819438
C       -0.3330060212    0.4262983050   -0.1722186298
N       -2.6368231013   -0.4979991343   -2.8174740669
N        0.2711404634   -3.7223458166    3.6416835517
N       -0.4926024366   -4.6203843696    3.0980341890
N       -0.9882803612   -0.0015432606   -1.3953817849
N       -1.0187239758   -4.1241375086    1.9362614500
H        1.1968609553    0.5442363652    2.0284990795
H        1.5636345457   -1.1563937745    3.8102336587
H       -1.4338968403   -2.1116996112   -0.1370468113
H       -1.4061500263   -1.5849794566   -4.2127917820
H        0.6325112340   -0.9906981618   -2.4226663379
H       -3.0100371513    0.6392744490   -1.0382476166
H       -1.4847110650   -5.0849648076    0.1278848413
H       -2.0385049907   -5.8866451123    1.6222728763
H       -2.8843558938   -4.4346052827    1.0239249764
H       -0.9364688590    1.2304654246    0.2619758242
H        0.6362937262    0.8663947056   -0.4279655751
27   
torsion grid (-60,)
C        0.7629109256   -0.4642194282    1.9074418575
C        1.0696376458   -1.4428128173    2.8425689414
C       -0.8853273631   -1.8807054811    0.7796260652
C       -1.2662070365   -1.0044091759   -3.2758137629
C       -0.3574642699   -0.7698302617   -2.2670939431
C       -2.2795810545    0.2369333804   -1.8486314742
C       -0.2038785526   -0.6723458479    0.8861628906
C        0.3877957294   -2.6676637091    2.7433634101
C       -0.5672453113   -2.8684818874    1.7239838266
C       -1.9905118821   -4.9082830232    1.1918955515
C       -0.5109256743    0.4738165581   -0.0628717244
N       -2.4641107331   -0.3730159740   -3.0041161692
N        0.4721727901   -3.8222701715    3.4976882245
N       -0.3577005503   -4.6913721205    3.0075270714
N       -1.0128889718    0.0426111821   -1.3580090938
N       -1.0025744518   -4.1458515234    1.9307675948
H        1.2788752048    0.4922949323    1.9496596733
H        1.8119236426   -1.2792938761    3.6179336049
H       -1.6143774550   -2.0475045569   -0.0074455880
H       -1.1248973287   -1.5863774425   -4.1776663629
H        0.6613004068   -1.0948971017   -2.1103196033
H       -3.0111151302    0.8377370270   -1.3216015921
H       -1.6897046018   -5.0096460567    0.1448778736
H       -2.0540358619   -5.8951922297    1.6500426431
H       -2.9679741856   -4.4190024633    1.2416927760
H       -1.2700680248    1.1303368909    0.3751042482
H        0.3875919886    1.0829816832   -0.2080752337
27   
torsion grid (-45,)
C        0.7544834570   -0.4747548281    1.8204756704
C        1.1619616575   -1.4602490433    2.7104442950
C       -0.9837026158   -1.8986122488    0.8487372237
C       -1.1141512293   -0.9768825735   -3.3127011059
C       -0.3715939966   -0.8557936669   -2.1581836402
C       -2.1962221882    0.3866665488   -2.0589781160
C       -0.3062001857   -0.6825243392    0.8990911716
C        0.4860201097   -2.6904113602    2.6656740148
C       -0.5643095737   -2.8925198601    1.7438147097
C       -2.0102127140   -4.9452763529    1.3333928620
C       -0.7245379973    0.4595815149   -0.0078399475
N       -2.2523143980   -0.1986580056   -3.2404764614
N        0.6568602486   -3.8518426517    3.3953237914
N       -0.2080854020   -4.7252544904    2.9803285324
N       -1.0708029755    0.0325392040   -1.3588807675
N       -0.9631079147   -4.1773293824    1.9789894447
H        1.2633764551    0.4860465853    1.8214148099
H        1.9760314984   -1.2966032578    3.4099719371
H       -1.7841895387   -2.0640029934    0.1335249055
H       -0.8942367797   -1.5791670771   -4.1850152686
H        0.5566445550   -1.3051283722   -1.8363691792
H       -2.9287504566    1.0752493407   -1.6551289835
H       -1.8119375269   -5.0355079096    0.2611817679
H       -2.0181209216   -5.9363431331    1.7868981432
H       -2.9833926673   -4.4678676948    1.4829803944
H       -1.6037266426    0.9666587747    0.4028845288
H        0.0801816231    1.2014976581   -0.0545895162
27   
torsion grid (-30,)
C        0.2543894582   -0.3581775766    2.1328285930
C        0.2104792536   -1.2191908119    3.2172237783
C       -0.5678412224   -2.0690580668    0.5845637731
C       -2.6056181091    2.6915010018    0.4384283112
C       -2.1445567684    1.3982628116    0.5598551322
C       -0.7309509222    2.6365884519   -0.6033281221
C       -0.1282921882   -0.7720057039    0.8251096843
C       -0.2287450705   -2.5355369278    2.9827505949
C       -0.6075856488   -2.9411729832    1.6860085355
C       -1.4516046419   -5.1945686697    0.8569865532
C       -0.0507847029    0.2220553557   -0.3113687300
N       -1.7160880705    3.4568245635   -0.2878615094
N       -0.3816289338   -3.6087572615    3.8384111746
N       -0.8217967153   -4.6189593989    3.1527992471
N       -0.9376470202    1.3707002989   -0.1180501815
N       -0.9699304078   -4.2479416483    1.8439149637
H        0.5761726068    0.6701057895    2.2752557148
H        0.5011222679   -0.8992599046    4.2132314498
H       -0.8696943436   -2.3840516749   -0.4108016679
H       -3.5191185452    3.1120066360    0.8391205845
H       -2.5403795020    0.5267273876    1.0595341260
H        0.1519170566    2.8948751127   -1.1757918299
H       -0.7035629489   -5.3439738054    0.0723717365
H       -1.6333144828   -6.1391612882    1.3695121873
H       -2.3838868349   -4.8389824509    0.4076387359
H        0.9679378377    0.6111213706   -0.4064181879
H       -0.3008922784   -0.2764914554   -1.2543389137
27   
torsion grid (-15,)
C        0.3817813463   -0.3842726596    2.2118956679
C        0.2895109024   -1.2716815914    3.2726188486
C       -0.5251493441   -2.0054964882    0.6158927487
C       -2.7116643994    2.5310236674    0.3794202905
C       -2.0880663536    1.3320160188    0.6512586996
C       -0.9145454339    2.5258430187   -0.7916506853
C       -0.0195352255   -0.7395385605    0.8929938882
C       -0.2194233092   -2.5548119028    3.0011064978
C       -0.6152192247   -2.9033051960    1.6924767499
C       -1.5760398277   -5.0838910526    0.7991668605
C        0.0898214073    0.2858719483   -0.2103281088
N       -1.9720833646    3.2690552139   -0.5215175502
N       -0.4312960590   -3.6422065085    3.8260816393
N       -0.9223458398   -4.6076955544    3.1113755929
N       -0.9314376807    1.3358423183   -0.1104771726
N       -1.0458518109   -4.1933032825    1.8132171061
H        0.7610159462    0.6198012793    2.3834590325
H        0.5963751072   -0.9960978001    4.2769461816
H       -0.8407648333   -2.2757326812   -0.3882408422
H       -3.6436646120    2.9022307900    0.7861357745
H       -2.3459277347    0.5080437236    1.2989243099
H       -0.1088102098    2.7904880980   -1.4659626807
H       -0.8351003303   -5.2517855432    0.0116059739
H       -1.8106539159   -6.0311640374    1.2844961399
H       -2.4860913121   -4.6648801035    0.3591222026
H        1.0707300406    0.7704270538   -0.1786204257
H       -0.0026207986   -0.2083544051   -1.1831041247
27   
torsion grid (0,)
C        1.0565866127   -0.7649397091    1.8290521903
C        1.2259139678   -1.7606654649    2.7799081672
C       -0.7343993790   -1.9861788947    0.6904243650
C        2.5288692427   -0.6091612588   -2.6947572275
C        1.8839398276   -0.9208055670   -1.5168026536
C        1.0705628798    0.9357248074   -2.3978189986
C        0.0889480252   -0.8683049615    0.7913506069
C        0.3983668547   -2.8932116681    2.6846361874
C       -0.5605895434   -2.9922824517    1.6536321116
C       -2.2234965144   -4.8484815549    1.1381934455
C       -0.0165034627    0.2366474458   -0.2321564412
N        2.0147334051    0.5502671106   -3.2370554332
N        0.3221156499   -4.0318994292    3.4633555627
N       -0.6038116280   -4.7987968846    2.9755642966
N        0.9447070004    0.0804952208   -1.3334732482
N       -1.1595573670   -4.1986136983    1.8787835930
H        1.6828899255    0.1226732741    1.8654310606
H        1.9651646011   -1.6763982908    3.5705661166
H       -1.4671552029   -2.0714590128   -0.1075761879
H        3.3308247313   -1.1533630168   -3.1769890873
H        2.0037956357   -1.7315384031   -0.8147578553
H        0.4484813813    1.8164476149   -2.5043482261
H       -1.9164146790   -5.0260810217    0.1030744359
H       -2.4272905072   -5.8020559437    1.6250762329
H       -3.1283789199   -4.2332557206    1.1487852983
H       -1.0251769724    0.2577454741   -0.6561420984
H        0.1613964423    1.2050887976    0.2460872245
27   
torsion grid (15,)
C        1.0479444566   -0.8060349474    1.6941433159
C        1.2499445772   -1.7671873680    2.6721595298
C       -0.8045269214   -2.0478797539    0.6821451767
C        2.6415488280   -0.4626592716   -2.6387658891
C        1.8620635437   -0.9104349012   -1.5936375051
C        1.2370263573    1.1086152926   -2.2392349187
C        0.0327696251   -0.9372272370    0.7047203868
C        0.4064838388   -2.8930494874    2.6573838856
C       -0.5991410104   -3.0192515621    1.6758468966
C       -2.3019469795   -4.8742141196    1.3056642012
C       -0.1162449284    0.1399091212   -0.3432999730
N        2.2442618609    0.7978248680   -3.0346163535
N        0.3553692267   -4.0014244445    3.4800418518
N       -0.5994940322   -4.7755751287    3.0639981413
N        0.9569933517    0.1078337284   -1.3445867643
N       -1.1990929592   -4.2093814975    1.9721956092
H        1.6855502580    0.0737984624    1.6663434938
H        2.0257956265   -1.6631426609    3.4245064393
H       -1.5739553987   -2.1544143434   -0.0778124820
H        3.4655350284   -0.9742030213   -3.1196039609
H        1.8710395155   -1.8235877111   -1.0183497293
H        0.6738200350    2.0339645246   -2.2610141494
H       -2.0443527282   -5.0938956422    0.2650929761
H       -2.4924206778   -5.8066706016    1.8368558705
H       -3.1995325867   -4.2489388871    1.3340226913
H       -1.0798240894    0.0286121691   -0.8514393326
H       -0.1039182146    1.1280049815    0.1273535257
27   
torsion grid (30,)
C        1.0505872359   -0.8531894135    1.5499017914
C        1.2700890697   -1.7702825156    2.5647851540
C       -0.8530305881   -2.1104918284    0.6581895083
C        2.7494897632   -0.3011715212   -2.5940072874
C        1.8576002393   -0.8797605788   -1.7167524947
C        1.3793051001    1.2537552975   -2.0394458062
C        0.0000548084   -1.0139170671    0.6020654616
C        0.4090083370   -2.8813931422    2.6325499055
C       -0.6298407939   -3.0370114936    1.6912042413
C       -2.3718251593   -4.8785214499    1.4658708065
C       -0.1817849033    0.0302029854   -0.4762000499
N        2.4433955081    1.0303998705   -2.7881992468
N        0.3690979378   -3.9486422968    3.5081917904
N       -0.6103999066   -4.7259924750    3.1609276190
N        0.9753939430    0.1285126967   -1.3675558346
N       -1.2365951040   -4.2022562426    2.0625582927
H        1.7020422401    0.0117321870    1.4565078530
H        2.0735782544   -1.6451433575    3.2842251541
H       -1.6493099341   -2.2401897949   -0.0699726253
H        3.5946014190   -0.7657441168   -3.0857547140
H        1.7769875409   -1.8769187186   -1.3104074404
H        0.8586367119    2.1988340822   -1.9413918734
H       -2.1533571181   -5.1526705245    0.4292317663
H       -2.5592770006   -5.7808609522    2.0477619588
H       -3.2578306745   -4.2368451943    1.4933311821
H       -1.0764481748   -0.2005930562   -1.0649615277
H       -0.3303352276    1.0174217275   -0.0273490478
27   
torsion grid (45,)
C        1.0492465583   -0.9043715057    1.4217321217
C        1.2774423263   -1.7730451567    2.4765258366
C       -0.8889353443   -2.1782847725    0.6333599277
C        2.8114497874   -0.1558216176   -2.5808358570
C        1.8411789674   -0.8428751304   -1.8839787717
C        1.4679096090    1.3348041948   -1.8213578632
C       -0.0237265272   -1.0973798737    0.5062100839
C        0.4035450035   -2.8670329086    2.6180663648
C       -0.6565319878   -3.0551307518    1.7069094320
C       -2.4243214382   -4.8827915877    1.6073771698
C       -0.2291994405   -0.0953575664   -0.6104018145
N        2.5705890336    1.2026343511   -2.5345092948
N        0.3698142050   -3.8902423440    3.5451449559
N       -0.6260221740   -4.6708280572    3.2569823450
N        0.9778195768    0.1248976323   -1.4007943921
N       -1.2689142556   -4.1931505971    2.1468099250
H        1.7114882722   -0.0562596442    1.2700346684
H        2.0988720450   -1.6248790398    3.1709559665
H       -1.7020723569   -2.3334244874   -0.0710647407
H        3.6686987913   -0.5613110145   -3.1029409948
H        1.6954636514   -1.8930129459   -1.6762907986
H        0.9769889794    2.2689743518   -1.5760120055
H       -2.2308071239   -5.2109663609    0.5814644162
H       -2.6110352877   -5.7526858009    2.2369975862
H       -3.3017128021   -4.2288659796    1.6204107074
H       -1.0417568125   -0.4297331359   -1.2648231616
H       -0.5220695440    0.8758923436   -0.1987363270
27   
torsion grid (60,)
C        1.0841716270   -0.9570664868    1.3067406049
C        1.3120879883   -1.7716674718    2.4046876640
C       -0.8886971955   -2.2354027059    0.6191696979
C        2.8929868563    0.0277788525   -2.5540080790
C        1.8635583000   -0.7526334743   -2.0743532569
C        1.5505180819    1.3731370693   -1.5577894002
C       -0.0064000938   -1.1787704502    0.4203129417
C        0.4204056643   -2.8380784240    2.6203399999
C       -0.6568561056   -3.0557526534    1.7360861279
C       -2.4590953240   -4.8518772790    1.7634533451
C       -0.2280848454   -0.2267964102   -0.7401831611
N        2.6880368942    1.3532131309   -2.2264872065
N        0.3821950164   -3.8082185842    3.6030535030
N       -0.6318770059   -4.5841508390    3.3730091951
N        1.0015316937    0.1219999441   -1.4371441974
N       -1.2830227452   -4.1561014690    2.2469255322
H        1.7612749843   -0.1331639586    1.0994791634
H        2.1483055088   -1.6025951032    3.0763616602
H       -1.7157093771   -2.4138901869   -0.0635849512
H        3.7647267203   -0.2891572541   -3.1121312484
H        1.6753681721   -1.8163987130   -2.1069596229
H        1.0710045228    2.2514505106   -1.1423388625
H       -2.2873437715   -5.2411697056    0.7551270548
H       -2.6530669631   -5.6811191169    2.4437383307
H       -3.3237618764   -4.1811084407    1.7515020158
H       -0.9408612329   -0.6594224419   -1.4499195297
H       -0.6639796281    0.7103429391   -0.3784212525
27   
torsion grid (75,)
C        1.0594227493   -1.0112823642    1.3211985118
C        1.2922661247   -1.8073236037    2.4329833438
C       -0.9055244026   -2.3129227612    0.6577010593
C        2.8248321778    0.3679471967   -2.4671948268
C        1.8073543784   -0.5116852739   -2.1672914238
C        1.4740627626    1.4428024335   -1.1915656096
C       -0.0297806196   -1.2533477547    0.4400597787
C        0.4074292637   -2.8741145704    2.6680945204
C       -0.6690031245   -3.1124252990    1.7877069436
C       -2.4594904339   -4.9194977424    1.8447634296
C       -0.2753737154   -0.3224606432   -0.7362525508
N        2.6063798263    1.5855469503   -1.8542542599
N        0.3754897761   -3.8285828598    3.6667759972
N       -0.6338100637   -4.6138320890    3.4497156911
N        0.9426127739    0.1875218774   -1.3445334919
N       -1.2880680427   -4.2083665597    2.3166632414
H        1.7336832894   -0.1886510596    1.1025435826
H        2.1290715226   -1.6225552239    3.0997969928
H       -1.7321890715   -2.5083392114   -0.0211590277
H        3.6934782316    0.1952316682   -3.0896302168
H        1.6287363632   -1.5431847244   -2.4367166397
H        0.9852218668    2.2025193833   -0.5932557642
H       -2.2852700567   -5.3242411537    0.8429201045
H       -2.6482247897   -5.7387461791    2.5385205968
H       -3.3286017549   -4.2547259388    1.8217894692
H       -0.8726162542   -0.8286352866   -1.5003646798
H       -0.8547683386    0.5459701066   -0.4044972966
27   
torsion grid (90,)
C        0.3566385730   -0.2978971895    2.1514715936
C        0.4985654116   -1.1797938323    3.2152257581
C       -0.6833180080   -2.0021563630    0.7344441618
C        0.7311071706    3.6020366526    0.6801088210
C        1.0315399772    2.3712823648    0.1381057320
C       -1.1113773850    2.4984627707    0.6632313644
C       -0.2247777345   -0.6992483247    0.9197607364
C        0.0467308628   -2.4970884829    3.0362643223
C       -0.5335676974   -2.8891705344    1.8106163292
C       -1.4786126057   -5.1408829200    1.0952679490
C       -0.3420113405    0.2763454955   -0.2446281012
N       -0.6092897792    3.6705328552    1.0038113332
N        0.0444076809   -3.5852158449    3.8891709992
N       -0.4899613152   -4.5902182806    3.2685516339
N       -0.1628713279    1.6708582846    0.1186139347
N       -0.8530205444   -4.2026142802    2.0052638380
H        0.6906782261    0.7283759451    2.2637955090
H        0.9391505313   -0.8659716722    4.1567239969
H       -1.1385662156   -2.3105660696   -0.2040774305
H        1.3980341146    4.4379798956    0.8478392155
H        1.9510470857    1.9385657530   -0.2309136474
H       -2.1425522024    2.1886417253    0.7818447804
H       -0.8687875777   -5.2676198326    0.1952736389
H       -1.5617026990   -6.0960281160    1.6138542637
H       -2.4769225886   -4.7933907361    0.8113573380
H        0.4041644144    0.0340865879   -1.0083912842
H       -1.3219046317    0.1693935512   -0.7198043427
27   
torsion grid (105,)
C        1.5523159792   -1.8479056952    0.7113824914
C        1.7032307290   -2.4762774895    1.9383114515
C       -0.8081197610   -2.4807144721    0.5472750948
C        2.6029207186    1.4796076920   -1.8752960783
C        2.1953176708    0.1891577964   -2.1356063311
C        0.7501676776    1.2212099325   -0.8207674826
C        0.3122719720   -1.8502565662    0.0148582447
C        0.5802946731   -3.1259221071    2.4805389045
C       -0.6486122597   -3.1200527460    1.7876774158
C       -2.8900735288   -4.1426717079    2.4235335002
C        0.2122049134   -1.1880623209   -1.3486519820
N        1.6937147485    2.1146349523   -1.0536245599
N        0.4132329727   -3.8231085874    3.6616196902
N       -0.8165557367   -4.2308507806    3.7255139204
N        0.9960620997    0.0341056783   -1.4609742616
N       -1.4886564482   -3.8203942412    2.6048387380
H        2.3951982494   -1.3231459678    0.2712168702
H        2.6498014723   -2.4668440620    2.4702108915
H       -1.7609929485   -2.4725384897    0.0235891752
H        3.4912337447    1.9837231216   -2.2337199107
H        2.6223713037   -0.6080968659   -2.7281077160
H       -0.1241623465    1.3673188884   -0.1985307134
H       -3.0323154374   -4.7408741100    1.5181475596
H       -3.2099352736   -4.7182726985    3.2921233302
H       -3.4880032133   -3.2287360041    2.3527233997
H        0.5689730709   -1.8724301159   -2.1247361163
H       -0.8336602902   -0.9645518665   -1.5806285366
27   
torsion grid (120,)
C        0.7647830452   -0.4727733513    2.0934498111
C        0.7822487345   -1.3613823440    3.1567649030
C       -0.5622837557   -1.9861209734    0.6970396592
C        0.1266962717    3.7396456525    0.5921639410
C        0.7810399311    2.6656534885    0.0287620465
C       -1.2041762994    2.0649789053    0.7920001401
C        0.1039193752   -0.7777179854    0.8706653760
C        0.1192531444   -2.5907838292    2.9889522533
C       -0.5381812030   -2.8856793995    1.7763161111
C       -1.8501877784   -4.9540983603    1.0872664151
C        0.1578563477    0.2196903285   -0.2708512814
N       -1.1111320834    3.3535661552    1.0650933235
N       -0.0430834557   -3.6618087773    3.8460638132
N       -0.7444609630   -4.5690197509    3.2390730893
N       -0.0836588636    1.5923727676    0.1589637549
N       -1.0620819405   -4.1294376608    1.9816504620
H        1.2521080470    0.4932613523    2.1919647138
H        1.2829198371   -1.1237123562    4.0904632169
H       -1.0787262515   -2.2158868761   -0.2316067265
H        0.4751975795    4.7604648717    0.6827547766
H        1.7488459077    2.5636775898   -0.4423124318
H       -2.0404950152    1.4219242313    1.0359765783
H       -1.2867591565   -5.1786960729    0.1763277475
H       -2.0773000849   -5.8825471989    1.6111455798
H       -2.7838121398   -4.4485391919    0.8217637309
H        1.1473265308    0.2005700693   -0.7376176772
H       -0.5662250186   -0.0544423725   -1.0450050503
27   
torsion grid (135,)
C        0.8727320090   -0.5150690109    2.1070400373
C        0.8338689437   -1.4127763824    3.1614792254
C       -0.5161941286   -1.9432113303    0.6813672704
C       -0.0641841463    3.7779557188    0.4384394821
C        0.6714419524    2.7524403033   -0.1146501029
C       -1.1399911016    1.9721292966    0.8827467317
C        0.2088458773   -0.7727245383    0.8743480944
C        0.1085749165   -2.6041049150    2.9740246003
C       -0.5502353863   -2.8531743268    1.7520380866
C       -1.9597200111   -4.8444720194    1.0285428006
C        0.3201267582    0.2395472765   -0.2471793848
N       -1.1918456157    3.2799487680    1.0590717040
N       -0.1177003375   -3.6734842387    3.8182328627
N       -0.8590283284   -4.5372546075    3.1950632042
N       -0.0254280372    1.5929789068    0.1792481927
N       -1.1396155449   -4.0701482857    1.9392299721
H        1.4093856569    0.4232121598    2.2186126987
H        1.3378308908   -1.2114347812    4.1019100541
H       -1.0338014150   -2.1362771479   -0.2547637790
H        0.1561864670    4.8377533420    0.4282611986
H        1.5987835398    2.7348921476   -0.6702693191
H       -1.8591190627    1.2520215860    1.2515016276
H       -1.3983161226   -5.0905063432    0.1219456574
H       -2.2413625793   -5.7640591988    1.5414184953
H       -2.8622175429   -4.2879826032    0.7575263740
H        1.3492847128    0.2742165566   -0.6174141408
H       -0.3163292737   -0.0573792133   -1.0877541899
27   
torsion grid (150,)
C        0.9886111298   -0.6005836034    2.1740077809
C        0.8892722914   -1.5144579402    3.2103804222
C       -0.4639196157   -1.9206026254    0.7083487727
C       -0.2672412608    3.7434886685    0.3301790267
C        0.5448364959    2.7706658422   -0.2106923470
C       -1.0544446664    1.8664350544    1.0186523637
C        0.3231907031   -0.7962267445    0.9304902585
C        0.0999091620   -2.6591453082    2.9928612755
C       -0.5600603252   -2.8474677659    1.7606604929
C       -2.0691633924   -4.7444440480    0.9850176940
C        0.4923023068    0.2362260927   -0.1625100240
N       -1.2606630592    3.1688418967    1.0965262911
N       -0.1915461121   -3.7314718760    3.8128396717
N       -0.9728517378   -4.5408132645    3.1656970538
N        0.0386667744    1.5656266345    0.2457792843
N       -1.2163022990   -4.0341863845    1.9178554327
H        1.5784904667    0.3023781956    2.3074837713
H        1.3961487157   -1.3610767957    4.1582300070
H       -0.9815951605   -2.0661586953   -0.2361125841
H       -0.1874603904    4.8172419464    0.2174477581
H        1.4147718406    2.8179758679   -0.8510553857
H       -1.6409614908    1.1004220185    1.5083986065
H       -1.5131901416   -5.0044043481    0.0790021574
H       -2.4066207150   -5.6562503918    1.4776595766
H       -2.9364137230   -4.1333339344    0.7168144138
H        1.5496352137    0.3246481172   -0.4316563692
H       -0.0487039001   -0.0763934767   -1.0623736857
27   
torsion grid (165,)
C        1.1276931211   -0.6622538676    2.2348415213
C        0.9643748964   -1.5874386347    3.2535996730
C       -0.3850164298   -1.8665957420    0.7314147009
C       -0.5344727727    3.6596871036    0.1878104182
C        0.3560586831    2.7537843644   -0.3458531610
C       -0.9730169048    1.7772146909    1.1262300410
C        0.4635937060   -0.7937512664    0.9824280801
C        0.1102726436   -2.6780633020    3.0074068985
C       -0.5463862393   -2.8043190137    1.7652109148
C       -2.1561394439   -4.5939579981    0.9391656191
C        0.6833750646    0.2596385050   -0.0787889529
N       -1.3572699142    3.0412611736    1.1063660311
N       -0.2521336864   -3.7466586660    3.8039114235
N       -1.0726513958   -4.4961449661    3.1337096050
N        0.0765269627    1.5468113074    0.2720597934
N       -1.2720905851   -3.9535681654    1.8935051517
H        1.7716742755    0.1995096635    2.3899545429
H        1.4714609639   -1.4826860762    4.2078948474
H       -0.9011640859   -1.9630828644   -0.2200408919
H       -0.6223036551    4.7162764991   -0.0315534390
H        1.1442487440    2.8500493619   -1.0798370129
H       -1.3978483016    0.9959869407    1.7414402846
H       -1.6071013315   -4.8694899311    0.0335657313
H       -2.5523053647   -5.4930725164    1.4109438804
H       -2.9824962593   -3.9270509610    0.6750224295
H        1.7555851848    0.4282089100   -0.2227320919
H        0.2730255073   -0.0816866787   -1.0352685258
27   
torsion grid (180,)
C        1.2813562957   -0.7441360397    2.3162809010
C        1.0504761903   -1.6928111259    3.3017000765
C       -0.3037221561   -1.7868957843    0.7684120306
C       -0.8090427248    3.5006603258    0.0153691156
C        0.1320283533    2.6451502036   -0.5154415637
C       -0.8827839190    1.7214623973    1.2178480210
C        0.6157433032   -0.7833600279    1.0597637573
C        0.1237598040   -2.7103129074    3.0148819409
C       -0.5356100650   -2.7453700547    1.7673422091
C       -2.2607787596   -4.3890409921    0.8736256877
C        0.8923942986    0.3001822069    0.0440870387
N       -1.4352897239    2.9160120421    1.0958328754
N       -0.3136622591   -3.7810855529    3.7704824788
N       -1.1807405187   -4.4467830542    3.0716651067
N        0.0808362146    1.5032803571    0.2651327274
N       -1.3383283229   -3.8467482838    1.8522421566
H        1.9857342485    0.0622754291    2.5035327337
H        1.5610462741   -1.6586878001    4.2592240270
H       -0.8208540940   -1.8123413655   -0.1870966735
H       -1.0661780707    4.4980563587   -0.3184433163
H        0.8143857473    2.7367184760   -1.3492932781
H       -1.1318850360    0.9836221301    1.9674761530
H       -1.7286011532   -4.6660527076   -0.0415300723
H       -2.7180440872   -5.2767895560    1.3103246954
H       -3.0392748330   -3.6581021521    0.6349381280
H        1.9485177135    0.5867365851    0.0820856691
H        0.6884949863   -0.0717854048   -0.9651127166
