45
0 1 C14H21N5O4S
C                     2.698080415629     3.234061956210     0.402173500044
C                     2.792698692633     1.993058760876    -1.449968973327
C                     1.976797155776     2.272583752823    -0.357049400392
C                     0.016778452482     1.946432380041     1.068796384191
C                    -1.735580323421    -1.249525303265     1.512108681520
C                    -1.303814524659     1.181043025195     1.153084815119
C                    -1.122372502251    -1.349812147716    -1.500878805553
C                    -0.034908238348    -2.155841597953    -2.239838208817
C                     0.066370517034     0.811936909444    -1.050028161895
C                     0.881455189490    -1.383454604760    -0.114461120628
C                    -0.368595978336    -0.526748366650    -0.429528543351
C                    -2.560651099020    -0.873299060519     2.733022865284
C                     5.045534366886     2.836441285216    -2.189987450693
C                     3.061118546265    -3.262365761338    -2.915862328286
N                     3.867138630064     3.518040709941    -0.180820736612
N                     3.907134637413     2.755901826112    -1.293388442417
N                     0.723275649094     1.679359330036    -0.072303122743
N                    -1.165375098715    -0.231672322302     0.778311597742
N                     1.185566114485    -2.076870725936    -1.387629939955
O                     0.359736948567     2.723913894535     1.955638126718
O                    -1.594167143808    -2.434756046401     1.197449339095
O                     3.607894037210    -1.345609798025    -1.141493537577
O                     2.386555236361    -0.734577059236    -3.277057107151
S                     2.622602033826    -1.687141695852    -2.170081328058
H                     2.412704014925     3.702432112116     1.330321529735
H                     2.694220115503     1.313326490313    -2.283480601695
H                    -1.631822341056     1.273637680919     2.182324218543
H                    -2.051297131250     1.681137709429     0.520025016727
H                    -1.675050155341    -0.700173100311    -2.185720366754
H                    -1.824879850864    -2.022299775886    -1.015129755660
H                    -0.326420776900    -3.202875071928    -2.358461022451
H                     0.173919980029    -1.735686746250    -3.226722977396
H                     0.746228377225     0.606972758935    -1.873709762647
H                    -0.803227038856     1.323559475791    -1.480871006809
H                     1.729295264523    -0.784479121090     0.218650731677
H                     0.648666260939    -2.130173714471     0.642561312796
H                    -3.360733544635    -0.166503333875     2.493360358691
H                    -1.938039899360    -0.426827220693     3.515152397224
H                    -2.999097342017    -1.793276223653     3.118798057878
H                     5.021514912750     3.768577326661    -2.763255352008
H                     5.965442117846     2.799369548176    -1.603413139703
H                     5.016804129595     1.986453830229    -2.873678845227
H                     3.974319330628    -3.095026576183    -3.489631244000
H                     3.224308553454    -3.981578213180    -2.113690008404
H                     2.252415343503    -3.579836246568    -3.575392719071
