
  -OEChem-05262117483D

 45 47  0     1  0  0  0  0  0999 V2000
   -1.1821    2.7507    1.8062 C   0  0  0  0  0  0  0  0  0  0  0  0
   -0.7558    1.5118    3.6090 C   0  0  0  0  0  0  0  0  0  0  0  0
   -0.7369    1.4659    2.2165 C   0  0  0  0  0  0  0  0  0  0  0  0
    0.0079   -0.8152    1.8785 C   0  0  0  0  0  0  0  0  0  0  0  0
   -1.2892   -2.3070   -0.9201 C   0  0  0  0  0  0  0  0  0  0  0  0
    0.3488   -1.9402    0.8960 C   0  0  0  0  0  0  0  0  0  0  0  0
    0.0701   -0.0973   -2.4337 C   0  0  0  0  0  0  0  0  0  0  0  0
    1.0676    1.0300   -2.7615 C   0  0  0  0  0  0  0  0  0  0  0  0
   -0.5291    0.6410   -0.0811 C   0  0  0  0  0  0  0  0  0  0  0  0
    1.7845   -0.1545   -0.7848 C   0  0  0  0  0  0  0  0  0  0  0  0
    0.2547   -0.3630   -0.9271 C   0  0  2  0  0  0  0  0  0  0  0  0
   -1.6802   -3.6370   -0.2928 C   0  0  0  0  0  0  0  0  0  0  0  0
   -1.2964    3.3295    5.2687 C   0  0  0  0  0  0  0  0  0  0  0  0
    3.7772    3.0442   -2.1028 C   0  0  0  0  0  0  0  0  0  0  0  0
   -1.4537    3.5264    2.8597 N   0  0  0  0  0  0  0  0  0  0  0  0
   -1.1960    2.7577    3.9383 N   0  0  0  0  0  0  0  0  0  0  0  0
   -0.3740    0.3950    1.3648 N   0  0  0  0  0  0  0  0  0  0  0  0
   -0.1130   -1.7171   -0.4741 N   0  0  0  0  0  0  0  0  0  0  0  0
    2.1041    0.9622   -1.6937 N   0  0  2  0  0  0  0  0  0  0  0  0
    0.1217   -1.0441    3.0841 O   0  0  0  0  0  0  0  0  0  0  0  0
   -1.9796   -1.8122   -1.8085 O   0  0  0  0  0  0  0  0  0  0  0  0
    3.1661    2.1146    0.3167 O   0  0  0  0  0  0  0  0  0  0  0  0
    1.3997    3.3838   -1.0050 O   0  0  0  0  0  0  0  0  0  0  0  0
    2.5273    2.4383   -0.9616 S   0  0  0  0  0  0  0  0  0  0  0  0
   -1.3115    3.1498    0.8098 H   0  0  0  0  0  0  0  0  0  0  0  0
   -0.4921    0.7699    4.3432 H   0  0  0  0  0  0  0  0  0  0  0  0
    1.4347   -2.0764    0.9194 H   0  0  0  0  0  0  0  0  0  0  0  0
   -0.0811   -2.8455    1.3143 H   0  0  0  0  0  0  0  0  0  0  0  0
   -0.9515    0.1668   -2.6965 H   0  0  0  0  0  0  0  0  0  0  0  0
    0.3222   -1.0098   -2.9790 H   0  0  0  0  0  0  0  0  0  0  0  0
    1.5328    0.8879   -3.7411 H   0  0  0  0  0  0  0  0  0  0  0  0
    0.5793    2.0074   -2.7475 H   0  0  0  0  0  0  0  0  0  0  0  0
   -0.1790    1.6532   -0.2893 H   0  0  0  0  0  0  0  0  0  0  0  0
   -1.5892    0.5866   -0.3521 H   0  0  0  0  0  0  0  0  0  0  0  0
    2.1257    0.0770    0.2228 H   0  0  0  0  0  0  0  0  0  0  0  0
    2.3026   -1.0551   -1.1335 H   0  0  0  0  0  0  0  0  0  0  0  0
   -2.1549   -3.4815    0.6819 H   0  0  0  0  0  0  0  0  0  0  0  0
   -0.8293   -4.3096   -0.1561 H   0  0  0  0  0  0  0  0  0  0  0  0
   -2.4107   -4.1027   -0.9545 H   0  0  0  0  0  0  0  0  0  0  0  0
   -0.4159    3.9390    5.4960 H   0  0  0  0  0  0  0  0  0  0  0  0
   -2.1888    3.9559    5.3175 H   0  0  0  0  0  0  0  0  0  0  0  0
   -1.3766    2.5228    5.9998 H   0  0  0  0  0  0  0  0  0  0  0  0
    4.0854    4.0255   -1.7376 H   0  0  0  0  0  0  0  0  0  0  0  0
    4.6104    2.3421   -2.0995 H   0  0  0  0  0  0  0  0  0  0  0  0
    3.3336    3.1313   -3.0956 H   0  0  0  0  0  0  0  0  0  0  0  0
  1  3  1  0  0  0  0
  1 15  2  0  0  0  0
  1 25  1  0  0  0  0
  2  3  2  0  0  0  0
  2 16  1  0  0  0  0
  2 26  1  0  0  0  0
  3 17  1  0  0  0  0
  4  6  1  0  0  0  0
  4 17  1  0  0  0  0
  4 20  2  0  0  0  0
  5 12  1  0  0  0  0
  5 18  1  0  0  0  0
  5 21  2  0  0  0  0
  6 18  1  0  0  0  0
  6 27  1  0  0  0  0
  6 28  1  0  0  0  0
  7  8  1  0  0  0  0
  7 11  1  0  0  0  0
  7 29  1  0  0  0  0
  7 30  1  0  0  0  0
  8 19  1  0  0  0  0
  8 31  1  0  0  0  0
  8 32  1  0  0  0  0
  9 11  1  0  0  0  0
  9 17  1  0  0  0  0
  9 33  1  0  0  0  0
  9 34  1  0  0  0  0
 10 11  1  0  0  0  0
 10 19  1  0  0  0  0
 10 35  1  0  0  0  0
 10 36  1  0  0  0  0
 11 18  1  0  0  0  0
 12 37  1  0  0  0  0
 12 38  1  0  0  0  0
 12 39  1  0  0  0  0
 13 16  1  0  0  0  0
 13 40  1  0  0  0  0
 13 41  1  0  0  0  0
 13 42  1  0  0  0  0
 14 24  1  0  0  0  0
 14 43  1  0  0  0  0
 14 44  1  0  0  0  0
 14 45  1  0  0  0  0
 15 16  1  0  0  0  0
 19 24  1  0  0  0  0
 22 24  2  0  0  0  0
 23 24  2  0  0  0  0
M  END
$$$$
