27
0 1 C11ClH8NO4S2
C                     0.847914763105     1.235164460371     1.530204250788
C                     0.678501139783     1.763120419999     2.824613592463
C                     1.111847268075    -2.431745287369     1.915394390350
C                     2.301111982006    -2.573239367595     2.688600010104
C                    -1.443428237168     0.362662869909     1.505601754493
C                    -0.192320021988     0.561094354211     0.881315243285
C                    -0.546493084944     1.554900723663     3.428962738413
C                    -1.576632126668     0.865425411634     2.784329072407
C                     1.373220772598    -2.103497949491     0.608793080913
C                     3.426564089244    -2.328911227247     1.941338816550
C                    -2.365301823256     1.642527585445     4.729349358937
N                    -0.000980258449     0.040626675456    -0.437174720120
O                    -1.103644841389    -2.241838287002    -0.161548769363
O                     0.722152639801    -1.848745340891    -1.930008889048
O                    -0.955158578634     1.922157232768     4.692821309147
O                    -2.667143440576     0.778453131479     3.620774009431
S                     3.075984547016    -1.942691848593     0.279805900377
S                     0.157273932977    -1.652044345444    -0.596603600285
Cl                    5.063380265054    -2.415093789792     2.487146960971
H                     1.806140241181     1.349335417259     1.030417674693
H                     1.478666221711     2.292401894455     3.331375454459
H                     0.104155664331    -2.557947437399     2.294762384655
H                     2.328987518725    -2.842450690413     3.738260383254
H                    -2.241066296829    -0.167856672841     0.999124648045
H                    -2.608665612222     1.131948710018     5.663024798055
H                    -2.924683744138     2.581344526217     4.620341430632
H                     0.757722884131     0.484454629518    -0.952204065848
