
  -OEChem-05262117483D

 40 43  0     0  0  0  0  0  0999 V2000
    1.0274   -1.0829    0.4602 C   0  0  0  0  0  0  0  0  0  0  0  0
   -0.0574   -0.8442   -0.3917 C   0  0  0  0  0  0  0  0  0  0  0  0
    1.9681   -2.0562    0.1224 C   0  0  0  0  0  0  0  0  0  0  0  0
   -0.1846   -1.5822   -1.5688 C   0  0  0  0  0  0  0  0  0  0  0  0
    5.6755   -2.3224   -7.5432 C   0  0  0  0  0  0  0  0  0  0  0  0
    4.6621   -2.6234   -6.6312 C   0  0  0  0  0  0  0  0  0  0  0  0
    5.9500   -4.5082   -5.7273 C   0  0  0  0  0  0  0  0  0  0  0  0
    1.8466   -2.8029   -1.0586 C   0  0  0  0  0  0  0  0  0  0  0  0
    0.7584   -2.5595   -1.9140 C   0  0  0  0  0  0  0  0  0  0  0  0
    6.8277   -3.1112   -7.5514 C   0  0  0  0  0  0  0  0  0  0  0  0
    4.7913   -3.7058   -5.7277 C   0  0  0  0  0  0  0  0  0  0  0  0
    6.9304   -4.1766   -6.6472 C   0  0  0  0  0  0  0  0  0  0  0  0
    8.7203   -4.0512   -7.8906 C   0  0  0  0  0  0  0  0  0  0  0  0
    2.5491   -3.4808   -4.5965 C   0  0  0  0  0  0  0  0  0  0  0  0
    2.8882   -3.8504   -1.4092 C   0  0  0  0  0  0  0  0  0  0  0  0
    0.5700   -3.3528   -3.1983 C   0  0  0  0  0  0  0  0  0  0  0  0
    2.3483   -4.8161   -2.4669 C   0  0  0  0  0  0  0  0  0  0  0  0
   10.0668   -4.4889   -8.3448 C   0  0  0  0  0  0  0  0  0  0  0  0
    7.9966   -3.0697   -8.3270 N   0  0  0  0  0  0  0  0  0  0  0  0
    1.7791   -4.0754   -3.5951 N   0  0  0  0  0  0  0  0  0  0  0  0
    3.8041   -4.0430   -4.7753 N   0  0  0  0  0  0  0  0  0  0  0  0
    2.1224   -2.5559   -5.2868 O   0  0  0  0  0  0  0  0  0  0  0  0
    8.1469   -4.7876   -6.8584 O   0  0  0  0  0  0  0  0  0  0  0  0
    1.1382   -0.5139    1.3796 H   0  0  0  0  0  0  0  0  0  0  0  0
   -0.7939   -0.0847   -0.1424 H   0  0  0  0  0  0  0  0  0  0  0  0
    2.8113   -2.2449    0.7846 H   0  0  0  0  0  0  0  0  0  0  0  0
   -1.0221   -1.3923   -2.2375 H   0  0  0  0  0  0  0  0  0  0  0  0
    5.5659   -1.4904   -8.2323 H   0  0  0  0  0  0  0  0  0  0  0  0
    3.7574   -2.0339   -6.6043 H   0  0  0  0  0  0  0  0  0  0  0  0
    6.0698   -5.3438   -5.0424 H   0  0  0  0  0  0  0  0  0  0  0  0
    3.7915   -3.3604   -1.7952 H   0  0  0  0  0  0  0  0  0  0  0  0
    3.1852   -4.4036   -0.5106 H   0  0  0  0  0  0  0  0  0  0  0  0
   -0.2384   -4.0841   -3.0663 H   0  0  0  0  0  0  0  0  0  0  0  0
    0.2906   -2.6915   -4.0171 H   0  0  0  0  0  0  0  0  0  0  0  0
    3.1080   -5.5324   -2.7895 H   0  0  0  0  0  0  0  0  0  0  0  0
    1.5384   -5.4200   -2.0432 H   0  0  0  0  0  0  0  0  0  0  0  0
   10.7838   -4.4575   -7.5179 H   0  0  0  0  0  0  0  0  0  0  0  0
   10.0341   -5.5180   -8.7175 H   0  0  0  0  0  0  0  0  0  0  0  0
   10.4056   -3.8273   -9.1423 H   0  0  0  0  0  0  0  0  0  0  0  0
    4.0291   -4.8547   -4.2208 H   0  0  0  0  0  0  0  0  0  0  0  0
  1  2  1  0  0  0  0
  1  3  2  0  0  0  0
  1 24  1  0  0  0  0
  2  4  2  0  0  0  0
  2 25  1  0  0  0  0
  3  8  1  0  0  0  0
  3 26  1  0  0  0  0
  4  9  1  0  0  0  0
  4 27  1  0  0  0  0
  5  6  2  0  0  0  0
  5 10  1  0  0  0  0
  5 28  1  0  0  0  0
  6 11  1  0  0  0  0
  6 29  1  0  0  0  0
  7 11  2  0  0  0  0
  7 12  1  0  0  0  0
  7 30  1  0  0  0  0
  8  9  2  0  0  0  0
  8 15  1  0  0  0  0
  9 16  1  0  0  0  0
 10 12  2  0  0  0  0
 10 19  1  0  0  0  0
 11 21  1  0  0  0  0
 12 23  1  0  0  0  0
 13 18  1  0  0  0  0
 13 19  2  0  0  0  0
 13 23  1  0  0  0  0
 14 20  1  0  0  0  0
 14 21  1  0  0  0  0
 14 22  2  0  0  0  0
 15 17  1  0  0  0  0
 15 31  1  0  0  0  0
 15 32  1  0  0  0  0
 16 20  1  0  0  0  0
 16 33  1  0  0  0  0
 16 34  1  0  0  0  0
 17 20  1  0  0  0  0
 17 35  1  0  0  0  0
 17 36  1  0  0  0  0
 18 37  1  0  0  0  0
 18 38  1  0  0  0  0
 18 39  1  0  0  0  0
 21 40  1  0  0  0  0
M  END
$$$$
