20   
torsion grid (-165,)
C       -3.0597371871   -2.6764510779    0.2611513798
C       -3.6217824118   -3.9430110544    0.6138885624
C       -1.7673965065   -2.9203541819   -0.1350857126
C       -2.6167126808   -4.8504065272    0.4214239885
C       -1.0901361257    0.1872579615    0.0034219398
C        0.2657137921   -1.5659040072    0.5896618548
C       -0.6413557447   -2.0343356382   -0.5790883697
N       -1.1042131540   -0.7365378408   -1.0351181823
N       -2.5964440459   -6.2731814217    0.5745661611
O       -1.5007487375   -6.8430757689    0.5400845357
O       -1.6491017601    1.2565038968    0.0481368407
O       -3.6990894594   -6.8209928077    0.7162808239
O       -1.4846983238   -4.2546022219   -0.0431764787
O       -0.3073630841   -0.3162889788    1.0122034403
H       -3.5450007235   -1.7104948046    0.3040719361
H       -4.6198818872   -4.1650338299    0.9636968762
H        0.2698136927   -2.2536529958    1.4350240487
H        1.2867346112   -1.3894411543    0.2389669408
H       -0.0486861732   -2.5561334977   -1.3363925984
H       -1.8495358828   -0.6490022449   -1.7149034857
20   
torsion grid (-150,)
C       -3.0659104375   -2.6622768653    0.2843261111
C       -3.6240715165   -3.9325821281    0.6347638935
C       -1.7806000433   -2.9026547555   -0.1335725427
C       -2.6183053330   -4.8351671624    0.4329371574
C       -1.1180493738    0.2114499833   -0.0405725741
C        0.2521930482   -1.5270150653    0.5556085936
C       -0.6638591362   -2.0155936268   -0.5978823119
N       -1.1381640798   -0.7261012850   -1.0664591766
N       -2.5983034184   -6.2646072226    0.5487068602
O       -1.5044989879   -6.8095337310    0.7308849206
O       -1.6823035426    1.2783347593   -0.0046954154
O       -3.6871966176   -6.8407632778    0.4209440842
O       -1.4955276743   -4.2384782034   -0.0509661664
O       -0.3223112535   -0.2741802383    0.9667855363
H       -3.5512000301   -1.6969615564    0.3400289655
H       -4.6202011270   -4.1566981419    0.9893373060
H        0.2673236447   -2.2032055737    1.4101309242
H        1.2690934641   -1.3506975066    0.1929842969
H       -0.0755149887   -2.5436023644   -1.3542487279
H       -1.8932943949   -0.6526331051   -1.7370660032
20   
torsion grid (-135,)
C       -3.0594087673   -2.6813074723    0.3077484232
C       -3.6285968354   -3.9506958814    0.6528572942
C       -1.7824807902   -2.9288095382   -0.1260763778
C       -2.6323778680   -4.8574258402    0.4382248406
C       -1.1005788641    0.1839544748   -0.0621062709
C        0.2649137245   -1.5573575550    0.5367165460
C       -0.6644131069   -2.0508224876   -0.6040816774
N       -1.1363215805   -0.7624723798   -1.0789715462
N       -2.6218160022   -6.2949590797    0.5224244512
O       -1.5864272602   -6.8286620444    0.9332361275
O       -1.6581202024    1.2546650089   -0.0306908026
O       -3.6370888341   -6.8814460340    0.1269135439
O       -1.5100075618   -4.2709804197   -0.0560858401
O       -0.2981311327   -0.2972166705    0.9420489758
H       -3.5354993406   -1.7122696708    0.3765798305
H       -4.6257961241   -4.1662930681    1.0101195110
H        0.2834416359   -2.2259377105    1.3971420849
H        1.2797213207   -1.3900875956    0.1638991063
H       -0.0855532904   -2.5868756869   -1.3621444875
H       -1.8985118654   -0.6913170427   -1.7417888518
20   
torsion grid (-120,)
C       -3.0698608647   -2.6513381550    0.3318090961
C       -3.6319187217   -3.9246499076    0.6876109071
C       -1.8033671670   -2.8937146187   -0.1278975114
C       -2.6387685742   -4.8249107559    0.4518276645
C       -1.1266684739    0.2218679188   -0.0861778289
C        0.2501516885   -1.5139736053    0.5024452955
C       -0.6935453610   -2.0150067175   -0.6230135491
N       -1.1750537797   -0.7296294736   -1.0976262160
N       -2.6116966034   -6.2713185788    0.5284826662
O       -1.6839914799   -6.7788466540    1.1651504127
O       -1.6859512932    1.2917885314   -0.0521587008
O       -3.4846399423   -6.8808079279   -0.0980601006
O       -1.5274223989   -4.2393021541   -0.0639840891
O       -0.3085080873   -0.2520853194    0.9085972791
H       -3.5470314310   -1.6838057682    0.4131508464
H       -4.6220144565   -4.1395026696    1.0648228617
H        0.2803837406   -2.1779319744    1.3661725127
H        1.2600056711   -1.3475096516    0.1159219662
H       -0.1231662760   -2.5520973297   -1.3868195507
H       -1.9494408495   -0.6649503011   -1.7468484269
20   
torsion grid (-105,)
C       -3.0643438744   -2.6091221587    0.3945340953
C       -3.6216128828   -3.8906692182    0.7428842942
C       -1.8063558676   -2.8412897749   -0.0865889136
C       -2.6358972673   -4.7831899434    0.4682045446
C       -1.1147610965    0.2709694690    0.0121430590
C        0.2643269146   -1.4828800967    0.5395888101
C       -0.7007422716   -1.9560805010   -0.5795305108
N       -1.1857086777   -0.6589297740   -1.0177339412
N       -2.5894173176   -6.2389007226    0.5338421878
O       -1.8497448551   -6.7338190496    1.3871016363
O       -1.6682406953    1.3425431955    0.0789527821
O       -3.2568239730   -6.8572343046   -0.2986518612
O       -1.5305189791   -4.1919755858   -0.0496466762
O       -0.2800376190   -0.2264995749    0.9811307981
H       -3.5413001966   -1.6439138699    0.5007182988
H       -4.6037567324   -4.1089049183    1.1385046056
H        0.3046909203   -2.1644913474    1.3890953300
H        1.2688432086   -1.3136714276    0.1404543148
H       -0.1455075452   -2.4769323616   -1.3655461642
H       -1.9726601310   -0.5787291230   -1.6498656249
20   
torsion grid (-90,)
C       -3.0609386757   -2.6142374538    0.4069504296
C       -3.6179339645   -3.8974045150    0.7568827055
C       -1.8127078533   -2.8462607029   -0.0959889041
C       -2.6495178567   -4.7912214340    0.4359466398
C       -1.0952743251    0.2540781938    0.0679658557
C        0.2763522986   -1.5208120362    0.5391896177
C       -0.7037298677   -1.9605482724   -0.5803146877
N       -1.1823659065   -0.6495907979   -0.9838887157
N       -2.5896112606   -6.2493324794    0.5294827392
O       -2.1331047331   -6.7215628810    1.5720345863
O       -1.6413834083    1.3270972771    0.1657898761
O       -2.9963472120   -6.8876928859   -0.4426669539
O       -1.5454584094   -4.2012243460   -0.0828367729
O       -0.2542838372   -0.2717073670    1.0163620936
H       -3.5325297704   -1.6485013833    0.5308487738
H       -4.5890494210   -4.1127840122    1.1802961566
H        0.3207615416   -2.2227495519    1.3718177277
H        1.2778389114   -1.3489587926    0.1334909527
H       -0.1606261906   -2.4673405278   -1.3837781574
H       -1.9761518086   -0.5493530949   -1.6045548780
20   
torsion grid (-75,)
C       -3.0502396814   -2.6139957054    0.4207199963
C       -3.5987811981   -3.8983595494    0.7724041232
C       -1.8078872389   -2.8427002978   -0.1013006682
C       -2.6455182945   -4.7935336901    0.4069717905
C       -1.0895129342    0.2482286943    0.1226551062
C        0.2908737942   -1.5345347813    0.5343227405
C       -0.7029924631   -1.9495848059   -0.5822057726
N       -1.1852939322   -0.6297125852   -0.9502459069
N       -2.5783859250   -6.2446210988    0.5287576118
O       -2.4648950988   -6.7039050349    1.6675365650
O       -1.6369079251    1.3168785084    0.2538863504
O       -2.6935479282   -6.8969653925   -0.5112488126
O       -1.5431490417   -4.1960350507   -0.1099619109
O       -0.2374068444   -0.2992574379    1.0486046752
H       -3.5203416657   -1.6492907174    0.5577574638
H       -4.5570756907   -4.1174091701    1.2223003000
H        0.3486953358   -2.2559382442    1.3492572969
H        1.2860860963   -1.3495201491    0.1191002538
H       -0.1712657580   -2.4393718079   -1.4035030921
H       -1.9844686837   -0.5148830718   -1.5614322006
20   
torsion grid (-60,)
C       -3.0549469811   -2.6136413137    0.4460176441
C       -3.5941344527   -3.8994239012    0.7934328517
C       -1.8171706369   -2.8372633489   -0.0941750335
C       -2.6500291356   -4.7948503300    0.3951412052
C       -1.0925965593    0.2545816589    0.1612163084
C        0.2874631202   -1.5366527983    0.5363274937
C       -0.7188561687   -1.9356324137   -0.5753127184
N       -1.2050688938   -0.6112811228   -0.9198318284
N       -2.5818651936   -6.2360246065    0.5248566421
O       -2.7863115690   -6.7005939168    1.6508432951
O       -1.6338031130    1.3240082976    0.3096931711
O       -2.4088064372   -6.8866727080   -0.5100867238
O       -1.5523905591   -4.1863156989   -0.1243823148
O       -0.2320883260   -0.3066231985    1.0712135801
H       -3.5231343682   -1.6502809603    0.5978558060
H       -4.5422654426   -4.1260188367    1.2606862858
H        0.3523910531   -2.2683169785    1.3415354208
H        1.2786308202   -1.3494457630    0.1126258304
H       -0.1964221109   -2.4147633045   -1.4087060410
H       -2.0079719063   -0.4854664593   -1.5238473814
20   
torsion grid (-45,)
C       -3.0533347583   -2.5950364291    0.4662190836
C       -3.5770173315   -3.8745092976    0.8454925375
C       -1.8262712258   -2.8267818472   -0.1007060438
C       -2.6404690251   -4.7787705740    0.4393863925
C       -1.1203492184    0.2768810744    0.0702705069
C        0.2779984538   -1.4970882287    0.4621381692
C       -0.7445998961   -1.9275916017   -0.6229865684
N       -1.2465143963   -0.6149612512   -0.9878022180
N       -2.5732357606   -6.2077478745    0.5988036209
O       -3.0353332653   -6.6634682181    1.6521854364
O       -1.6655209537    1.3461226460    0.2036489452
O       -2.1448736639   -6.8680825048   -0.3537754347
O       -1.5573409128   -4.1710770128   -0.1148960044
O       -0.2404568514   -0.2584370589    0.9775647981
H       -3.5197866888   -1.6299029311    0.6121862118
H       -4.5119912066   -4.0997538833    1.3388201775
H        0.3616511322   -2.2097072011    1.2825709101
H        1.2604654248   -1.3138880138    0.0171265945
H       -0.2338380921   -2.4225455237   -1.4542249239
H       -2.0589079431   -0.5067285625   -1.5823895448
20   
torsion grid (-30,)
C       -3.0106546124   -2.6345274793    0.4710643266
C       -3.5396600591   -3.9173957051    0.8224251856
C       -1.7847654897   -2.8605412606   -0.1036798185
C       -2.6026849850   -4.8184148442    0.4023747449
C       -1.0495478650    0.2340012024    0.1375835739
C        0.3349176242   -1.5628988082    0.4713399009
C       -0.7021098346   -1.9559870084   -0.6143718751
N       -1.1964233997   -0.6307624526   -0.9399630470
N       -2.5569632075   -6.2476302309    0.5099518646
O       -3.2413232408   -6.7493116730    1.4121266524
O       -1.5813934175    1.3055168567    0.3020207921
O       -1.9026426182   -6.8666906978   -0.3360873662
O       -1.5207118947   -4.2026505634   -0.1463435403
O       -0.1665639214   -0.3327724282    1.0226435877
H       -3.4708367746   -1.6700515132    0.6395027296
H       -4.4764121395   -4.1509003699    1.3082947587
H        0.4196946595   -2.2968366852    1.2726186833
H        1.3146631324   -1.3782033078    0.0211299995
H       -0.2040923029   -2.4343297056   -1.4629219420
H       -2.0104243015   -0.4980388281   -1.5272391371
20   
torsion grid (-15,)
C       -3.0082599678   -2.6317519049    0.4930867660
C       -3.5312777539   -3.9179210289    0.8342628650
C       -1.7886329625   -2.8510825713   -0.0998326377
C       -2.5918557043   -4.8150118961    0.4057433700
C       -1.0700617674    0.2489193102    0.1334437544
C        0.3287834420   -1.5397780281    0.4512053360
C       -0.7181742897   -1.9390724011   -0.6227531549
N       -1.2240894266   -0.6167813895   -0.9425285711
N       -2.5523086364   -6.2427641796    0.4901941694
O       -3.4071653657   -6.7667724426    1.2189214919
O       -1.6061636846    1.3172098362    0.3044922552
O       -1.7091593962   -6.8407007283   -0.1868633296
O       -1.5209650877   -4.1902633521   -0.1555623639
O       -0.1739776559   -0.3129779728    1.0084565509
H       -3.4674445677   -1.6693306065    0.6756311906
H       -4.4644332727   -4.1599126125    1.3226490669
H        0.4276274886   -2.2734609815    1.2510584031
H        1.3019096990   -1.3490761038   -0.0106652774
H       -0.2265634714   -2.4150928080   -1.4763181782
H       -2.0458267041   -0.4889010164   -1.5200662427
20   
torsion grid (0,)
C       -2.9844295819   -2.6397718776    0.5067810582
C       -3.5361668790   -3.9130780598    0.8494381301
C       -1.7702380940   -2.8883710124   -0.0860812363
C       -2.6095296128   -4.8315960926    0.4376738418
C       -0.9609490265    0.1796549513    0.1868746728
C        0.3946032528   -1.6512886442    0.4433031447
C       -0.6834253721   -2.0007379118   -0.6168433869
N       -1.1556682095   -0.6588819544   -0.9043560888
N       -2.6157287611   -6.2600928547    0.5037918560
O       -3.6129599305   -6.7731254973    1.0322505898
O       -1.4659485722    1.2575485276    0.3889853123
O       -1.6450847918   -6.8677024939    0.0400934366
O       -1.5295002300   -4.2325786257   -0.1345023353
O       -0.0656471113   -0.4236755938    1.0345743731
H       -3.4218758961   -1.6669325251    0.6873544727
H       -4.4779865617   -4.1339709571    1.3309938565
H        0.4900615165   -2.4034732157    1.2261031080
H        1.3629061517   -1.4759346661   -0.0344796341
H       -0.2224311551   -2.4765743924   -1.4875036350
H       -1.9827969792   -0.4966362106   -1.4653873735
20   
torsion grid (15,)
C       -2.9682891697   -2.6718512065    0.5088356504
C       -3.5218647954   -3.9431121998    0.8575321654
C       -1.7631930141   -2.9249658638   -0.1000440543
C       -2.5973128702   -4.8644474019    0.4485170362
C       -0.9423835181    0.1416317967    0.1431683770
C        0.4112684466   -1.6912798894    0.3943703416
C       -0.6808906264   -2.0440236256   -0.6503147131
N       -1.1523324479   -0.7025262989   -0.9410652418
N       -2.6111345905   -6.2940293777    0.5025577763
O       -3.6907830556   -6.8149806765    0.8177976856
O       -1.4429836565    1.2215830050    0.3451267143
O       -1.5546790827   -6.8927782738    0.2738747498
O       -1.5274473626   -4.2703599946   -0.1472626429
O       -0.0380372906   -0.4585717709    0.9833036223
H       -3.4000143712   -1.6972686041    0.6938033480
H       -4.4624968657   -4.1600836631    1.3432850784
H        0.5136207815   -2.4389174570    1.1806407621
H        1.3743196893   -1.5219929388   -0.0960368943
H       -0.2317860978   -2.5271947033   -1.5231545858
H       -1.9877594632   -0.5422945622   -1.4903265018
20   
torsion grid (30,)
C       -2.9682036944   -2.6614812445    0.5346248949
C       -3.5215317626   -3.9362321357    0.8769837471
C       -1.7719979362   -2.9099248834   -0.0913094456
C       -2.5971030071   -4.8521503291    0.4607528334
C       -0.9625546496    0.1638138223    0.1247819189
C        0.4031663313   -1.6613049069    0.3688346996
C       -0.7012042513   -2.0260292602   -0.6586611356
N       -1.1836929607   -0.6885329309   -0.9504380526
N       -2.6158177674   -6.2856659864    0.4861804349
O       -3.7325828481   -6.8163947688    0.5583955695
O       -1.4649680803    1.2430525095    0.3266521944
O       -1.5290107164   -6.8736870185    0.5039402586
O       -1.5362051087   -4.2566694882   -0.1484289465
O       -0.0440289274   -0.4268241379    0.9562306975
H       -3.3970322361   -1.6882491534    0.7330092733
H       -4.4605862794   -4.1549907773    1.3652198594
H        0.5198280875   -2.4034319010    1.1583151841
H        1.3586861359   -1.4901558863   -0.1355269550
H       -0.2613471333   -2.5109689445   -1.5352665006
H       -2.0278272783   -0.5361136231   -1.4884539495
20   
torsion grid (45,)
C       -2.9557113416   -2.6827549824    0.5617064489
C       -3.5197367848   -3.9550017283    0.9047377418
C       -1.7762269895   -2.9380709276   -0.0894027109
C       -2.6104407771   -4.8748964995    0.4713741076
C       -0.9568091876    0.1376085984    0.0836937936
C        0.4060403201   -1.6878573548    0.3404554180
C       -0.7073292941   -2.0631469424   -0.6736427996
N       -1.1894244313   -0.7278724708   -0.9782613913
N       -2.6498100907   -6.3138910949    0.4669710289
O       -3.7594508866   -6.8331295392    0.2942214458
O       -1.4550621807    1.2207433896    0.2755948654
O       -1.5993160326   -6.9117993405    0.7235466478
O       -1.5572968080   -4.2898442128   -0.1591927774
O       -0.0324101302   -0.4440749446    0.9149052279
H       -3.3700494976   -1.7065811013    0.7758177987
H       -4.4555234481   -4.1646826928    1.4033947561
H        0.5260591728   -2.4196771890    1.1390361512
H        1.3584999787   -1.5263632963   -0.1728920579
H       -0.2750783371   -2.5587374189   -1.5480838614
H       -2.0399361503   -0.5818426337   -1.5079810171
20   
torsion grid (60,)
C       -2.9679477630   -2.6805793529    0.5521469275
C       -3.5139387716   -3.9476584235    0.9518427507
C       -1.8032674923   -2.9463587587   -0.1169368863
C       -2.6064877077   -4.8703824860    0.5300504751
C       -1.0021114923    0.1398765752   -0.0719333937
C        0.3793202602   -1.6661536319    0.2194388391
C       -0.7540306432   -2.0852510495   -0.7544248751
N       -1.2535554772   -0.7650182289   -1.0960891079
N       -2.6288573858   -6.3179529120    0.5639969709
O       -3.6563876745   -6.8665988554    0.1530537817
O       -1.5040636669    1.2260627042    0.0919912733
O       -1.6592962594   -6.8825968571    1.0796928142
O       -1.5733463943   -4.3014806184   -0.1439600485
O       -0.0530389492   -0.4038937272    0.7569344103
H       -3.3863215863   -1.7017069316    0.7450687895
H       -4.4370613878   -4.1454297641    1.4784279068
H        0.5209252633   -2.3670576660    1.0419439558
H        1.3195290438   -1.5192460962   -0.3202728469
H       -0.3370877265   -2.6078820305   -1.6206314164
H       -2.1202471030   -0.6460097700   -1.6060294895
20   
torsion grid (75,)
C       -2.9539832499   -2.6853795670    0.5819480986
C       -3.5032397014   -3.9573583372    0.9741616205
C       -1.8016038337   -2.9453789441   -0.1056723103
C       -2.6136469606   -4.8747506169    0.5145433603
C       -0.9803569448    0.1347623580   -0.0259866336
C        0.3931929302   -1.6824725440    0.2295350145
C       -0.7511984729   -2.0827388569   -0.7390872303
N       -1.2461355621   -0.7550688504   -1.0593667926
N       -2.6283916604   -6.3323052717    0.5335713384
O       -3.4884955240   -6.8898071596   -0.1521148914
O       -1.4748524601    1.2216007561    0.1564349528
O       -1.8164197158   -6.8884703265    1.2765217886
O       -1.5829620110   -4.3058425432   -0.1590286297
O       -0.0265732886   -0.4245026189    0.7869556424
H       -3.3654193393   -1.7079100360    0.7957307077
H       -4.4174940855   -4.1544043320    1.5163752869
H        0.5374305308   -2.3943664245    1.0421239676
H        1.3298292801   -1.5340366617   -0.3160754516
H       -0.3450457555   -2.5952438846   -1.6164311866
H       -2.1175958806   -0.6258037308   -1.5585676194
20   
torsion grid (90,)
C       -2.9912992813   -2.6433321579    0.5509174814
C       -3.4957147177   -3.9043639033    1.0356354380
C       -1.8463109217   -2.9128620128   -0.1426398321
C       -2.6038003472   -4.8244824452    0.5914425358
C       -1.0502452446    0.1725125446   -0.1820326933
C        0.3478853308   -1.6250450194    0.0800795608
C       -0.8241925824   -2.0632775383   -0.8372165788
N       -1.3412777497   -0.7498094058   -1.1795529921
N       -2.5410986429   -6.2784372120    0.7350224794
O       -3.1063094055   -6.9492986150   -0.1301963291
O       -1.5480066421    1.2603140185   -0.0144679765
O       -1.9275014959   -6.7147341060    1.7104987316
O       -1.5951012951   -4.2709288050   -0.1245017837
O       -0.0646417036   -0.3545529346    0.6141740070
H       -3.4261452636   -1.6664800224    0.7152448131
H       -4.3847893471   -4.0887480315    1.6223694785
H        0.5255781696   -2.3113866252    0.9079202944
H        1.2645711260   -1.4850620064   -0.5005966173
H       -0.4429900065   -2.5978250807   -1.7126518887
H       -2.2293651676   -0.6423061767   -1.6539196207
20   
torsion grid (105,)
C       -2.9853551623   -2.6545593876    0.5852437103
C       -3.4968645203   -3.9130563016    1.0641245474
C       -1.8546547450   -2.9321864325   -0.1303134661
C       -2.6389502049   -4.8439612865    0.5735382077
C       -1.0310326306    0.1394461431   -0.1190183222
C        0.3544526111   -1.6729684371    0.1008998334
C       -0.8259625389   -2.0842558321   -0.8177659800
N       -1.3306546913   -0.7597040696   -1.1353248393
N       -2.5768022346   -6.2924760167    0.7256240457
O       -2.8346117108   -6.9669360411   -0.2737948709
O       -1.5214001692    1.2263444709    0.0735622826
O       -2.2281752583   -6.7246072770    1.8267813954
O       -1.6270927979   -4.2924313180   -0.1413786168
O       -0.0471372746   -0.4111558390    0.6632153328
H       -3.4019692645   -1.6734192395    0.7700384006
H       -4.3707148759   -4.0921323119    1.6749274058
H        0.5329157087   -2.3766876312    0.9137889987
H        1.2681820889   -1.5268653187   -0.4829109486
H       -0.4554671686   -2.6089435914   -1.7035369956
H       -2.2191634851   -0.6353845810   -1.6049040806
20   
torsion grid (120,)
C       -3.0082741437   -2.6043361849    0.6172399695
C       -3.4994545016   -3.8607936854    1.1122400617
C       -1.8890355994   -2.8811705837   -0.1205075950
C       -2.6539711430   -4.7948314832    0.5982754286
C       -1.0743609747    0.1995577284   -0.1331600408
C        0.3161607086   -1.6106714957    0.0783503118
C       -0.8748180800   -2.0285311463   -0.8240983116
N       -1.3891082411   -0.7072085828   -1.1379154162
N       -2.5761951189   -6.2300732308    0.7813419216
O       -2.5357237260   -6.9222615403   -0.2397400994
O       -1.5608811939    1.2881956382    0.0588440910
O       -2.4978966535   -6.6408973570    1.9436636715
O       -1.6567374347   -4.2366204024   -0.1352031051
O       -0.0794276007   -0.3462348492    0.6386275317
H       -3.4249251547   -1.6239110964    0.8056135593
H       -4.3541937284   -4.0433832878    1.7485199716
H        0.5055257363   -2.3100218792    0.8925721944
H        1.2224085155   -1.4674953696   -0.5176108703
H       -0.5138247609   -2.5546217930   -1.7128911276
H       -2.2818792754   -0.5852766603   -1.5998201430
20   
torsion grid (135,)
C       -2.9881606805   -2.6203431207    0.6281688032
C       -3.4795363888   -3.8750274049    1.1176196110
C       -1.8807393374   -2.9018260988   -0.1295823799
C       -2.6494332446   -4.8154691971    0.5825525747
C       -1.0619945273    0.1788571077   -0.1457501387
C        0.3279316187   -1.6339887886    0.0458981384
C       -0.8745973253   -2.0478640086   -0.8434552104
N       -1.3911308570   -0.7255359881   -1.1479660273
N       -2.5894904133   -6.2433295406    0.7630678306
O       -2.2912909767   -6.9271690190   -0.2213090996
O       -1.5446462910    1.2679018887    0.0526687700
O       -2.7915071442   -6.6649713369    1.9084878542
O       -1.6586482720   -4.2547840392   -0.1605620741
O       -0.0589851307   -0.3702522790    0.6133890191
H       -3.3929058878   -1.6377498796    0.8307013349
H       -4.3246540241   -4.0597114574    1.7658703241
H        0.5264394674   -2.3353004598    0.8562462906
H        1.2268733953   -1.4911819798   -0.5610075536
H       -0.5254605236   -2.5731344524   -1.7373412517
H       -2.2878663797   -0.5999790266   -1.6010990942
20   
torsion grid (150,)
C       -3.0124408757   -2.5985902724    0.6261991131
C       -3.4878075715   -3.8584273965    1.1113681664
C       -1.9116643551   -2.8677542271   -0.1485615899
C       -2.6524607354   -4.7912086266    0.5650544582
C       -1.1328502751    0.2259797193   -0.1827856220
C        0.2804523779   -1.5697418884    0.0040445103
C       -0.9243742975   -2.0015538515   -0.8739112698
N       -1.4605665474   -0.6871298584   -1.1774353187
N       -2.6005762906   -6.2159515135    0.7227320448
O       -2.0781785219   -6.8740523038   -0.1830657792
O       -1.6259045036    1.3102697062    0.0154822411
O       -3.0570372960   -6.6673358573    1.7820708674
O       -1.6785783295   -4.2157889720   -0.1902992425
O       -0.1169301229   -0.3085544892    0.5698000300
H       -3.4212567332   -1.6199605222    0.8396515749
H       -4.3250898691   -4.0569209469    1.7654373306
H        0.4942533215   -2.2654902874    0.8152896550
H        1.1724054833   -1.4188571459   -0.6110742048
H       -0.5763170132   -2.5256548222   -1.7688568503
H       -2.3618195180   -0.5735268327   -1.6246660869
20   
torsion grid (165,)
C       -3.0133622088   -2.5812593730    0.6653659648
C       -3.4905068152   -3.8439126664    1.1372997942
C       -1.9078931642   -2.8453400675   -0.1059264560
C       -2.6429016187   -4.7732133885    0.6002291500
C       -1.0971916512    0.2381009093   -0.0798144912
C        0.2995159593   -1.5760454703    0.0398570198
C       -0.9238027780   -1.9732221873   -0.8284959421
N       -1.4494724246   -0.6463363308   -1.0922515589
N       -2.6063290037   -6.1973827077    0.7367728255
O       -1.8746199110   -6.8337806081   -0.0288019135
O       -1.5751596048    1.3222177474    0.1527872440
O       -3.3081358001   -6.6751158067    1.6397924536
O       -1.6697034221   -4.1906797480   -0.1517530877
O       -0.0764757905   -0.3261555666    0.6439776675
H       -3.4242843844   -1.6042859497    0.8822841822
H       -4.3352798661   -4.0496939345    1.7791049700
H        0.5201662069   -2.2945624698    0.8290422010
H        1.1822184406   -1.4178854304   -0.5866327638
H       -0.5957683651   -2.4805437567   -1.7406041835
H       -2.3546890698   -0.5109246252   -1.5251705395
20   
torsion grid (180,)
C       -2.9961295371   -2.5860298210    0.6797611624
C       -3.4735803764   -3.8446363998    1.1603179273
C       -1.9047301649   -2.8577381064   -0.1093010058
C       -2.6305495536   -4.7789941411    0.6233461914
C       -1.0988252124    0.2248430533   -0.1240448644
C        0.3026870213   -1.5857532035   -0.0090645195
C       -0.9328705707   -1.9922691100   -0.8557117043
N       -1.4633736856   -0.6682561684   -1.1246507959
N       -2.6135858232   -6.2034822328    0.7482589563
O       -1.7324679552   -6.8282573457    0.1485857891
O       -1.5761093985    1.3095441336    0.1070590569
O       -3.4999205028   -6.6958778897    1.4616102411
O       -1.6716781651   -4.2034733493   -0.1525236924
O       -0.0668457018   -0.3315521726    0.5898779449
H       -3.3998016692   -1.6064702272    0.8986051036
H       -4.3151557918   -4.0460681276    1.8075532277
H        0.5361886711   -2.2971846770    0.7827940966
H        1.1756865456   -1.4314545757   -0.6499398073
H       -0.6175572290   -2.5088871055   -1.7670580487
H       -2.3755218750   -0.5382916184   -1.5445932446
