36
0 1 C15H18N2O
C                    -4.270547557808     1.373310446968    -8.407218382585
C                    -5.599949525721     0.910075982351    -8.299104001751
C                    -3.495891166980     1.616873031937    -7.275881290295
C                    -6.177285968977     0.667623023783    -7.053334613115
C                    -4.593191067778     1.074326376002    -3.828174317190
C                    -4.057769095055     1.402377426178    -6.004129882710
C                    -3.570447647997     1.512424997198    -4.646462459142
C                    -5.392902708339     0.911979655032    -5.920073871704
C                    -2.236662727503     1.882584688899    -4.115704029924
C                     0.029747813317     4.990756217500    -6.026427425954
C                    -1.396105602001     4.663763389451    -6.486460336696
C                     0.683084422981     3.751209783525    -5.403099127672
C                    -2.213745956963     4.049378985088    -5.347905013247
C                    -0.181278395523     3.167313659565    -4.282884663003
C                    -6.959829428623     0.236026926861    -4.067007142709
N                    -5.694471905231     0.728797660913    -4.577446781027
N                    -1.533136522256     2.878408546467    -4.775923388271
O                    -1.762237900581     1.287608218577    -3.140949818092
H                    -3.844704966567     1.535640414188    -9.393915774805
H                    -6.179245014762     0.730274583925    -9.200684250363
H                    -2.468585657549     1.953978325354    -7.370703660365
H                    -7.195277059900     0.296123376007    -6.972390952582
H                    -4.598155406194     0.985111278783    -2.750048464690
H                    -0.005933187804     5.796287749023    -5.279935539645
H                     0.628284688456     5.362732458146    -6.865583353703
H                    -1.906654462496     5.564959974003    -6.844924254231
H                    -1.359809871590     3.957965362937    -7.324861477822
H                     0.828686431808     2.984169242320    -6.174078419524
H                     1.671931158402     3.996813579624    -4.999309520426
H                    -2.348845983661     4.802856095246    -4.553798168989
H                    -3.205419091368     3.765382249915    -5.693852942523
H                     0.239698189012     2.240872602094    -3.893534079293
H                    -0.236590982141     3.874800084179    -3.440017345596
H                    -7.780975206890     0.901730582566    -4.353945124194
H                    -7.168221858984    -0.768258622475    -4.451372480212
H                    -6.912512863119     0.189293736897    -2.978022907228
