
  -OEChem-05262117483D

 34 36  0     1  0  0  0  0  0999 V2000
    3.6733   -4.3298    0.6247 C   0  0  0  0  0  0  0  0  0  0  0  0
    4.9277   -4.8435    0.8675 C   0  0  0  0  0  0  0  0  0  0  0  0
    4.7738   -0.4123    0.9676 C   0  0  0  0  0  0  0  0  0  0  0  0
    3.7948   -2.8974    0.6923 C   0  0  0  0  0  0  0  0  0  0  0  0
    5.1447   -2.6030    0.9792 C   0  0  0  0  0  0  0  0  0  0  0  0
    2.9458   -1.7659    0.5516 C   0  0  0  0  0  0  0  0  0  0  0  0
   -0.1090    1.0568   -1.4175 C   0  0  0  0  0  0  0  0  0  0  0  0
    0.9804   -0.0017   -1.2068 C   0  0  0  0  0  0  0  0  0  0  0  0
   -0.3573    1.8519   -0.1345 C   0  0  0  0  0  0  0  0  0  0  0  0
    0.3701    0.0104    1.2487 C   0  0  0  0  0  0  0  0  0  0  0  0
    0.6333   -0.8652    0.0140 C   0  0  2  0  0  0  0  0  0  0  0  0
   -1.0646    1.7111    2.1694 C   0  0  0  0  0  0  0  0  0  0  0  0
    5.6802   -1.3773    1.1255 N   0  0  0  0  0  0  0  0  0  0  0  0
    3.4598   -0.5307    0.6941 N   0  0  0  0  0  0  0  0  0  0  0  0
    5.8169   -3.7977    1.0816 N   0  0  0  0  0  0  0  0  0  0  0  0
   -0.7141    0.9580    0.9710 N   0  0  1  0  0  0  0  0  0  0  0  0
    1.6165   -1.9206    0.2855 N   0  0  0  0  0  0  0  0  0  0  0  0
    2.7887   -4.9222    0.4273 H   0  0  0  0  0  0  0  0  0  0  0  0
    5.2625   -5.8711    0.9066 H   0  0  0  0  0  0  0  0  0  0  0  0
    5.1368    0.6090    1.0722 H   0  0  0  0  0  0  0  0  0  0  0  0
    0.1803    1.7412   -2.2229 H   0  0  0  0  0  0  0  0  0  0  0  0
   -1.0477    0.5753   -1.7186 H   0  0  0  0  0  0  0  0  0  0  0  0
    1.0835   -0.6386   -2.0929 H   0  0  0  0  0  0  0  0  0  0  0  0
    1.9462    0.4801   -1.0325 H   0  0  0  0  0  0  0  0  0  0  0  0
    0.5436    2.4499    0.1107 H   0  0  0  0  0  0  0  0  0  0  0  0
   -1.1825    2.5569   -0.2846 H   0  0  0  0  0  0  0  0  0  0  0  0
    0.0682   -0.6325    2.0827 H   0  0  0  0  0  0  0  0  0  0  0  0
    1.3030    0.5213    1.5372 H   0  0  0  0  0  0  0  0  0  0  0  0
   -0.3027   -1.3931   -0.1997 H   0  0  0  0  0  0  0  0  0  0  0  0
   -1.3711    1.0220    2.9633 H   0  0  0  0  0  0  0  0  0  0  0  0
   -1.9071    2.3767    1.9544 H   0  0  0  0  0  0  0  0  0  0  0  0
   -0.2289    2.3266    2.5538 H   0  0  0  0  0  0  0  0  0  0  0  0
    6.8044   -3.8765    1.2827 H   0  0  0  0  0  0  0  0  0  0  0  0
    1.3098   -2.8715    0.1428 H   0  0  0  0  0  0  0  0  0  0  0  0
  1  2  2  0  0  0  0
  1  4  1  0  0  0  0
  1 18  1  0  0  0  0
  2 15  1  0  0  0  0
  2 19  1  0  0  0  0
  3 13  1  0  0  0  0
  3 14  2  0  0  0  0
  3 20  1  0  0  0  0
  4  5  1  0  0  0  0
  4  6  2  0  0  0  0
  5 13  2  0  0  0  0
  5 15  1  0  0  0  0
  6 14  1  0  0  0  0
  6 17  1  0  0  0  0
  7  8  1  0  0  0  0
  7  9  1  0  0  0  0
  7 21  1  0  0  0  0
  7 22  1  0  0  0  0
  8 11  1  0  0  0  0
  8 23  1  0  0  0  0
  8 24  1  0  0  0  0
  9 16  1  0  0  0  0
  9 25  1  0  0  0  0
  9 26  1  0  0  0  0
 10 11  1  0  0  0  0
 10 16  1  0  0  0  0
 10 27  1  0  0  0  0
 10 28  1  0  0  0  0
 11 17  1  0  0  0  0
 11 29  1  0  0  0  0
 12 16  1  0  0  0  0
 12 30  1  0  0  0  0
 12 31  1  0  0  0  0
 12 32  1  0  0  0  0
 15 33  1  0  0  0  0
 17 34  1  0  0  0  0
M  END
$$$$
