
  -OEChem-05262117483D

 32 33  0     0  0  0  0  0  0999 V2000
    1.0148   -1.3354    3.7868 C   0  0  0  0  0  0  0  0  0  0  0  0
    0.8945   -1.8062    2.4579 C   0  0  0  0  0  0  0  0  0  0  0  0
    1.6409   -0.8927    1.7101 C   0  0  0  0  0  0  0  0  0  0  0  0
    3.0908   -1.5743   -0.1108 C   0  0  0  0  0  0  0  0  0  0  0  0
    0.7984   -0.9228   -0.5747 C   0  0  0  0  0  0  0  0  0  0  0  0
    3.4825   -1.1599   -1.5255 C   0  0  0  0  0  0  0  0  0  0  0  0
    1.2178   -0.5038   -1.9805 C   0  0  0  0  0  0  0  0  0  0  0  0
    0.1418   -3.0172    1.9810 C   0  0  0  0  0  0  0  0  0  0  0  0
    3.0078    1.1503    2.3064 C   0  0  0  0  0  0  0  0  0  0  0  0
    2.7220   -0.9786   -3.8094 C   0  0  0  0  0  0  0  0  0  0  0  0
    1.7732   -0.2363    3.8734 N   0  0  0  0  0  0  0  0  0  0  0  0
    2.1365    0.0290    2.5988 N   0  0  0  0  0  0  0  0  0  0  0  0
    1.9381   -0.7785    0.3379 N   0  0  0  0  0  0  0  0  0  0  0  0
    2.3503   -1.3088   -2.4394 N   0  0  0  0  0  0  0  0  0  0  0  0
    0.5828   -1.7591    4.6867 H   0  0  0  0  0  0  0  0  0  0  0  0
    2.8639   -2.6531   -0.0950 H   0  0  0  0  0  0  0  0  0  0  0  0
    3.9264   -1.3951    0.5718 H   0  0  0  0  0  0  0  0  0  0  0  0
   -0.0131   -0.2813   -0.2199 H   0  0  0  0  0  0  0  0  0  0  0  0
    0.4276   -1.9589   -0.6113 H   0  0  0  0  0  0  0  0  0  0  0  0
    3.8510   -0.1153   -1.5048 H   0  0  0  0  0  0  0  0  0  0  0  0
    4.3028   -1.7966   -1.8750 H   0  0  0  0  0  0  0  0  0  0  0  0
    0.3781   -0.6560   -2.6677 H   0  0  0  0  0  0  0  0  0  0  0  0
    1.4625    0.5763   -1.9788 H   0  0  0  0  0  0  0  0  0  0  0  0
   -0.7887   -2.7513    1.4657 H   0  0  0  0  0  0  0  0  0  0  0  0
    0.7363   -3.6230    1.2897 H   0  0  0  0  0  0  0  0  0  0  0  0
   -0.1259   -3.6547    2.8291 H   0  0  0  0  0  0  0  0  0  0  0  0
    2.6775    2.0162    2.8834 H   0  0  0  0  0  0  0  0  0  0  0  0
    4.0450    0.9195    2.5728 H   0  0  0  0  0  0  0  0  0  0  0  0
    2.9456    1.3612    1.2380 H   0  0  0  0  0  0  0  0  0  0  0  0
    3.5391   -1.6293   -4.1377 H   0  0  0  0  0  0  0  0  0  0  0  0
    3.0500    0.0719   -3.9272 H   0  0  0  0  0  0  0  0  0  0  0  0
    1.8681   -1.1452   -4.4741 H   0  0  0  0  0  0  0  0  0  0  0  0
  1  2  1  0  0  0  0
  1 11  2  0  0  0  0
  1 15  1  0  0  0  0
  2  3  2  0  0  0  0
  2  8  1  0  0  0  0
  3 12  1  0  0  0  0
  3 13  1  0  0  0  0
  4  6  1  0  0  0  0
  4 13  1  0  0  0  0
  4 16  1  0  0  0  0
  4 17  1  0  0  0  0
  5  7  1  0  0  0  0
  5 13  1  0  0  0  0
  5 18  1  0  0  0  0
  5 19  1  0  0  0  0
  6 14  1  0  0  0  0
  6 20  1  0  0  0  0
  6 21  1  0  0  0  0
  7 14  1  0  0  0  0
  7 22  1  0  0  0  0
  7 23  1  0  0  0  0
  8 24  1  0  0  0  0
  8 25  1  0  0  0  0
  8 26  1  0  0  0  0
  9 12  1  0  0  0  0
  9 27  1  0  0  0  0
  9 28  1  0  0  0  0
  9 29  1  0  0  0  0
 10 14  1  0  0  0  0
 10 30  1  0  0  0  0
 10 31  1  0  0  0  0
 10 32  1  0  0  0  0
 11 12  1  0  0  0  0
M  END
$$$$
