
  -OEChem-05262117483D

 27 27  0     1  0  0  0  0  0999 V2000
   -0.5743   -0.7625   -1.5177 C   0  0  0  0  0  0  0  0  0  0  0  0
    1.9345    0.2405    1.0624 C   0  0  0  0  0  0  0  0  0  0  0  0
    1.1175   -0.9034    0.4044 C   0  0  0  0  0  0  0  0  0  0  0  0
    1.0064    1.4588    0.9747 C   0  0  0  0  0  0  0  0  0  0  0  0
   -0.1491   -0.2158   -0.1467 C   0  0  1  0  0  0  0  0  0  0  0  0
   -2.5611   -2.9979   -2.8883 C   0  0  0  0  0  0  0  0  0  0  0  0
   -0.9033    2.1053   -0.4119 C   0  0  0  0  0  0  0  0  0  0  0  0
   -2.5038   -1.4672   -2.9017 C   0  0  0  0  0  0  0  0  0  0  0  0
    0.2188    1.2008   -0.2315 N   0  0  1  0  0  0  0  0  0  0  0  0
   -1.9245   -0.9083   -1.6828 N   0  0  0  0  0  0  0  0  0  0  0  0
    0.2331   -1.0275   -2.4056 O   0  0  0  0  0  0  0  0  0  0  0  0
    2.2198    0.0186    2.0943 H   0  0  0  0  0  0  0  0  0  0  0  0
    2.8492    0.4255    0.4937 H   0  0  0  0  0  0  0  0  0  0  0  0
    1.6688   -1.3599   -0.4188 H   0  0  0  0  0  0  0  0  0  0  0  0
    0.8503   -1.6902    1.1151 H   0  0  0  0  0  0  0  0  0  0  0  0
    0.3596    1.5197    1.8734 H   0  0  0  0  0  0  0  0  0  0  0  0
    1.5414    2.4099    0.8842 H   0  0  0  0  0  0  0  0  0  0  0  0
   -0.9861   -0.3495    0.5716 H   0  0  0  0  0  0  0  0  0  0  0  0
   -1.5544   -3.4111   -2.7832 H   0  0  0  0  0  0  0  0  0  0  0  0
   -3.1765   -3.3646   -2.0592 H   0  0  0  0  0  0  0  0  0  0  0  0
   -2.9918   -3.3724   -3.8235 H   0  0  0  0  0  0  0  0  0  0  0  0
   -1.4111    1.8937   -1.3572 H   0  0  0  0  0  0  0  0  0  0  0  0
   -0.5393    3.1366   -0.4494 H   0  0  0  0  0  0  0  0  0  0  0  0
   -1.6473    2.0330    0.4073 H   0  0  0  0  0  0  0  0  0  0  0  0
   -3.5050   -1.0415   -3.0258 H   0  0  0  0  0  0  0  0  0  0  0  0
   -1.8881   -1.1233   -3.7357 H   0  0  0  0  0  0  0  0  0  0  0  0
   -2.5228   -0.7586   -0.8815 H   0  0  0  0  0  0  0  0  0  0  0  0
  1  5  1  0  0  0  0
  1 10  1  0  0  0  0
  1 11  2  0  0  0  0
  2  3  1  0  0  0  0
  2  4  1  0  0  0  0
  2 12  1  0  0  0  0
  2 13  1  0  0  0  0
  3  5  1  0  0  0  0
  3 14  1  0  0  0  0
  3 15  1  0  0  0  0
  4  9  1  0  0  0  0
  4 16  1  0  0  0  0
  4 17  1  0  0  0  0
  5  9  1  0  0  0  0
  5 18  1  0  0  0  0
  6  8  1  0  0  0  0
  6 19  1  0  0  0  0
  6 20  1  0  0  0  0
  6 21  1  0  0  0  0
  7  9  1  0  0  0  0
  7 22  1  0  0  0  0
  7 23  1  0  0  0  0
  7 24  1  0  0  0  0
  8 10  1  0  0  0  0
  8 25  1  0  0  0  0
  8 26  1  0  0  0  0
 10 27  1  0  0  0  0
M  END
$$$$
