31
0 1 C11H15N3O2
C                     1.795216779986    -2.224359018681    -0.667079960962
C                     1.496490936915    -1.136333197214     0.150590234302
C                     3.078035955391    -2.325100177644    -1.214536979238
C                     3.737433549155    -0.375531179063    -0.211518200767
C                     2.493146359427    -0.182082623172     0.402991671513
C                     3.684907525059     3.022112216719     0.709796029134
C                     1.495562236203     0.766752488882     2.588976409910
C                     2.709040019627     3.440900812241    -0.379321659548
C                     0.851741375809     1.761994648401     4.748595978598
C                     4.408786790722     1.431628357969     2.398411367098
C                     2.209441936454     1.060757716685     1.234556176459
N                     4.038320207988    -1.417992069804    -1.000517595925
N                     1.454166719177     1.841791809465     3.423687439593
N                     3.381565510426     1.902708604999     1.458699481827
O                     4.717183416110     3.654841665655     0.927070603723
O                     0.955434105332    -0.304926154239     2.846188575975
H                     1.048361481228    -2.984377007877    -0.878718078577
H                     0.513918512803    -1.035565489431     0.596571585063
H                     3.342779334476    -3.164756585323    -1.855754520592
H                     4.537518963454     0.346595986147    -0.070876233437
H                     1.744785937804     3.751174704368     0.037279851853
H                     3.149912122085     4.288846780925    -0.902728563160
H                     2.526455006195     2.632941966019    -1.094324676016
H                     0.535050728451     2.760090644742     5.060224807806
H                     1.552193066754     1.358829904189     5.489547183715
H                    -0.016966897778     1.104058292836     4.702765993589
H                     4.494596764884     2.101800322540     3.259110062051
H                     5.383735062421     1.393770596976     1.908219435304
H                     4.141099159596     0.432851024802     2.745875394374
H                     1.477162215410     1.658347264073     0.685517616838
H                     2.038261215798     2.635826167029     3.195868379359
