24
0 1 C9H11NO3
C                     1.546425569627    -1.044259601122    -0.322289215244
C                     0.597058549808    -0.380851447363     0.461004025009
C                     2.692896712092    -1.572427014671     0.256981492428
C                     1.935419064556    -0.844646464108     2.467381303135
C                     0.802647928484    -0.286433622686     1.837159138158
C                     2.900848660634    -1.467587071290     1.643378745821
C                     1.994655658945    -0.931883253492     3.971969270511
C                     1.634578756354     0.227404979066     6.099875481802
C                     4.774184707752    -1.468352489082     3.199925443448
N                     1.820875995545     0.241650471911     4.653496060372
O                     2.219568229224    -1.999263919307     4.544885131394
O                    -0.123659173068     0.348318950102     2.644888300303
O                     4.074043045859    -2.008161282673     2.071058407499
H                     1.395385804576    -1.127036654311    -1.395135265625
H                    -0.293228263363     0.051762278503     0.008700117852
H                     3.458352483970    -2.060556287783    -0.337319112761
H                     0.657603603643    -0.183614786992     6.383285650495
H                     1.720515738339     1.249010689011     6.477603132589
H                     2.408751331041    -0.390476106595     6.557031213715
H                     5.835528715744    -1.610321818069     2.983129546687
H                     4.497985467572    -1.997578384056     4.112856273349
H                     4.567709581677    -0.399178092443     3.316269614721
H                     1.391174300119     0.999488626714     4.138287725744
H                    -0.886741558698     0.597207687821     2.099682232545
