19   
torsion grid (-165,)
C        1.8589876765   -1.1357866862   -0.0257376670
C        3.0286550350   -1.6121154145    2.0722327918
C        0.8028818098   -0.5760736548    0.6894040559
C        1.9698908058   -1.0523394769    2.7885568865
C        2.9510557641   -1.6447941166    0.6806759855
C        0.8757385685   -0.5493656153    2.0845058669
N       -1.6711233664   -1.0869633667    2.7733760781
N        4.0713431999   -2.2431436630   -0.0789817354
O        3.9710636724   -2.2764869966   -1.3080572819
O        5.0331303164   -2.6693857767    0.5652516996
O       -1.0805709456    1.2735414618    2.2486952619
O       -0.0755066215    0.3145902166    4.3962049018
S       -0.4840958793    0.1710305111    3.0022604198
Cl      -1.4244130197   -2.4991871178    3.7973407157
H        1.8493294839   -1.1815323143   -1.1082042368
H        3.9003335716   -2.0163035336    2.5729445376
H       -0.0608250207   -0.1641688108    0.1780129195
H        1.9888811705   -1.0013568288    3.8719290265
H       -2.5753233453   -0.6782128790    3.0381641397
19   
torsion grid (-150,)
C        1.9108218267   -1.1102779478    0.0072866148
C        3.0288204463   -1.6880275301    2.1083981500
C        0.8447664243   -0.5687926079    0.7223203507
C        1.9627046939   -1.1416067572    2.8237590895
C        2.9805239861   -1.6626260792    0.7151196299
C        0.8884151926   -0.5979443563    2.1182797145
N       -1.5994418335   -1.2395464879    2.9519383616
N        4.1108715837   -2.2409578141   -0.0445948914
O        4.0483906731   -2.2034621294   -1.2761864023
O        5.0429707410   -2.7256318490    0.6021983751
O       -1.1657213816    1.0968663356    2.2191346699
O       -0.0428664045    0.3551363273    4.4035368702
S       -0.4856877832    0.0932667343    3.0392368484
Cl      -1.4651587562   -2.4202276787    4.2404352491
H        1.9253211388   -1.1089858542   -1.0761255044
H        3.8850510150   -2.1222147872    2.6107163894
H       -0.0018994883   -0.1230674430    0.2109162091
H        1.9663019630   -1.1266859404    3.9084312821
H       -2.5426326865   -0.8372274918    2.9721251801
19   
torsion grid (-135,)
C        1.9155282737   -1.0624421141   -0.0839534981
C        3.0081001865   -1.7171133654    2.0077844399
C        0.8532337831   -0.5235040493    0.6393438714
C        1.9464041547   -1.1732632932    2.7307617564
C        2.9699777853   -1.6530453289    0.6149652120
C        0.8854062585   -0.5926270432    2.0337312474
N       -1.5646669175   -1.2756687503    2.9726545197
N        4.0951386418   -2.2293898842   -0.1529441708
O        4.0404699939   -2.1585098899   -1.3835480474
O        5.0159705627   -2.7451367380    0.4860451330
O       -1.1971208530    1.0449989034    2.1154004290
O       -0.0228171749    0.4010539292    4.3126547537
S       -0.4866084788    0.0892927526    2.9673317303
Cl      -1.6294541082   -2.2145717954    4.4437457980
H        1.9382494975   -1.0299663017   -1.1667693707
H        3.8539263968   -2.1783676088    2.5036127120
H        0.0195673293   -0.0463552895    0.1351814003
H        1.9457667919   -1.1869575253    3.8156033426
H       -2.4994497145   -0.9200878907    2.7512710860
19   
torsion grid (-120,)
C        1.8247340043   -0.9736513318   -0.1343437829
C        2.8782041244   -1.7091606252    1.9505018944
C        0.7682782285   -0.4273070183    0.5936324393
C        1.8227424222   -1.1599054025    2.6766078048
C        2.8564305412   -1.6076478834    0.5585928765
C        0.7827495875   -0.5345830213    1.9851530081
N       -1.6131728140   -1.2391192121    3.0428309961
N        3.9753322291   -2.1901106889   -0.2130375600
O        3.9359880694   -2.0834661106   -1.4417198258
O        4.8760403831   -2.7460420299    0.4208978309
O       -1.3107030845    1.0733908940    2.0434766896
O       -0.0965153409    0.5283947675    4.2493720772
S       -0.5794410227    0.1619332899    2.9253954492
Cl      -1.9324199806   -1.8426320142    4.6497872391
H        1.8597682221   -0.9123285929   -1.2155982136
H        3.7077523068   -2.2033402231    2.4421371217
H       -0.0466942768    0.0860241554    0.0945670849
H        1.8118361612   -1.2031358168    3.7607584353
H       -2.5010372086   -0.9950129913    2.5954757475
19   
torsion grid (-105,)
C        1.9750024648   -0.9541919980   -0.1262832332
C        2.8978472462   -1.6789455508    2.0234134011
C        0.8752467282   -0.4035639190    0.5328816530
C        1.7990151124   -1.1298450326    2.6800305691
C        2.9622288910   -1.5829728007    0.6315347325
C        0.8042265608   -0.5060426268    1.9226137723
N       -1.5457484477   -1.2634819925    2.9936997292
N        4.1278086914   -2.1674028638   -0.0666920544
O        4.1535227839   -2.0871533644   -1.2976539916
O        4.9989579868   -2.6986808781    0.6267298953
O       -1.3298962810    1.0490854357    1.8216634560
O       -0.1844892447    0.6686302944    4.0919709222
S       -0.6052475094    0.2086448786    2.7764808628
Cl      -2.2900860638   -1.4269132956    4.5738079434
H        2.0763304876   -0.8980763987   -1.2036179921
H        3.6956411581   -2.1707346742    2.5672144696
H        0.0933593972    0.1098598125   -0.0168463985
H        1.7177859698   -1.1744504077    3.7611307397
H       -2.3097887159   -1.2182743420    2.3121787854
19   
torsion grid (-90,)
C        1.9786205030   -0.9438605429   -0.1567027528
C        2.8278454610   -1.7333586541    2.0010655554
C        0.8719574389   -0.3854445186    0.4855218991
C        1.7240728338   -1.1752552059    2.6404225086
C        2.9321443300   -1.6077968698    0.6134388079
C        0.7625000422   -0.5141557102    1.8705452614
N       -1.4857371086   -1.2773453170    3.0697717964
N        4.1046322461   -2.2020094177   -0.0660981171
O        4.1770045070   -2.0761807619   -1.2912184261
O        4.9334021651   -2.7861771928    0.6365238159
O       -1.4106506185    0.9938684594    1.7174409778
O       -0.2222822130    0.7896199297    3.9776265444
S       -0.6457424793    0.2284639948    2.7029083207
Cl      -2.5595088290   -1.1355700958    4.4590836364
H        2.1095601969   -0.8676618834   -1.2296173479
H        3.5993294509   -2.2556534404    2.5542529012
H        0.1118913204    0.1513029129   -0.0726929899
H        1.6099435723   -1.2454075359    3.7171376468
H       -2.0998640291   -1.4641753622    2.2694825578
19   
torsion grid (-75,)
C        1.9660855906   -0.9449998886   -0.1444478735
C        2.8463140901   -1.7340658813    2.0012991714
C        0.8679938696   -0.3877083462    0.5129663502
C        1.7512999378   -1.1765622871    2.6568350218
C        2.9307563512   -1.6084367717    0.6125834017
C        0.7782280818   -0.5169338153    1.8998951194
N       -1.4125365443   -1.2980204190    3.1407457832
N        4.0939993569   -2.2025962298   -0.0839516231
O        4.1465915915   -2.0793835585   -1.3102205893
O        4.9341804847   -2.7839547354    0.6070879455
O       -1.4019338036    0.9881615692    1.7790681364
O       -0.1937286088    0.7919585802    4.0212386536
S       -0.6203134757    0.2230275639    2.7509768967
Cl      -2.7558790461   -1.0692335620    4.2608167144
H        2.0823871035   -0.8684820509   -1.2190253958
H        3.6261945255   -2.2555918953    2.5433327754
H        0.0996449638    0.1490643996   -0.0339517821
H        1.6514658623   -1.2454576625    3.7350466320
H       -1.8354184363   -1.6403098272    2.2703811568
19   
torsion grid (-60,)
C        1.9028020390   -0.9478167633   -0.1322174337
C        2.8190803007   -1.7022187024    2.0115696002
C        0.8217135750   -0.3693312216    0.5343723787
C        1.7415711685   -1.1206653148    2.6765791308
C        2.8764041645   -1.6049579299    0.6196649363
C        0.7580893773   -0.4699395935    1.9255928558
N       -1.4190114915   -1.2256156815    3.1857124201
N        4.0206346504   -2.2236083936   -0.0880138103
O        4.0546290109   -2.1169109580   -1.3163392919
O        4.8637360778   -2.8075938065    0.5969137986
O       -1.4020107603    1.0654452383    1.8225085557
O       -0.1870806583    0.8593425612    4.0542476099
S       -0.6235579538    0.2893749235    2.7878868131
Cl      -2.9610001010   -0.9636900127    3.9950345394
H        1.9996709249   -0.8928729470   -1.2100490092
H        3.6054638180   -2.2190353730    2.5487785889
H        0.0469183515    0.1629405042   -0.0079752171
H        1.6636224962   -1.1631197786    3.7580214052
H       -1.6328375358   -1.6975467355    2.2999155479
19   
torsion grid (-45,)
C        1.8770340677   -0.9561536016   -0.1232308400
C        2.8359687758   -1.6803070002    2.0124220637
C        0.8077085286   -0.3708884137    0.5554592481
C        1.7700258728   -1.0903269549    2.6900503387
C        2.8664252021   -1.6016676219    0.6190559456
C        0.7706474979   -0.4524985472    1.9494096274
N       -1.4251512770   -1.1975168984    3.2027712750
N        3.9994511096   -2.2257739162   -0.1020240147
O        4.0054079792   -2.1414849735   -1.3324724925
O        4.8628161559   -2.7887947718    0.5751001260
O       -1.3690950833    1.1146573424    1.8780100580
O       -0.1523832367    0.8576374538    4.1005264336
S       -0.5995242404    0.3113781333    2.8273391183
Cl      -3.1018765005   -0.9473292626    3.6640197743
H        1.9542068273   -0.9146660600   -1.2032801692
H        3.6341500718   -2.1874053826    2.5414971940
H        0.0219911557    0.1532101924    0.0208181828
H        1.7151533062   -1.1138600140    3.7735900778
H       -1.4263605750   -1.7699226252    2.3517503084
19   
torsion grid (-30,)
C        1.7961503706   -0.9910497201   -0.1071627170
C        2.8189423161   -1.6417227705    2.0220110017
C        0.7382353125   -0.3987959029    0.5820335021
C        1.7641808849   -1.0432897606    2.7111486640
C        2.8119470361   -1.6052148382    0.6271128508
C        0.7377182610   -0.4409292196    1.9789229114
N       -1.5291318004   -1.1702472170    3.1648861290
N        3.9311005561   -2.2407835131   -0.1054021324
O        3.9088254811   -2.1843416174   -1.3372803557
O        4.8107417040   -2.7870172467    0.5643740452
O       -1.3611355664    1.1899993011    1.9544207666
O       -0.1723810063    0.7876988378    4.1708354360
S       -0.6272926414    0.3183249937    2.8698891076
Cl      -3.2639815138   -0.9298050083    3.2257831465
H        1.8453914210   -0.9793253008   -1.1895839785
H        3.6369751208   -2.1233938306    2.5444978997
H       -0.0656918987    0.1027970086    0.0526701580
H        1.7387516341   -1.0320572115    3.7960882593
H       -1.3348877849   -1.8154016461    2.3932886921
19   
torsion grid (-15,)
C        1.8135188752   -1.0508413739   -0.0780689561
C        2.8493776775   -1.6143642439    2.0697059859
C        0.7636018968   -0.4244456062    0.5921335234
C        1.8010092161   -0.9833612462    2.7398963166
C        2.8322667231   -1.6376163840    0.6749046215
C        0.7718877136   -0.4082619688    1.9899494760
N       -1.6000516334   -1.0465950198    3.1333545958
N        3.9440502210   -2.3075000738   -0.0371684484
O        3.9012001093   -2.3235985154   -1.2696828211
O        4.8389040470   -2.8069881057    0.6488454296
O       -1.2705470132    1.2997125638    1.9390222035
O       -0.1301286026    0.8138701211    4.1699084333
S       -0.5887634735    0.3897555039    2.8545638669
Cl      -3.2866979741   -0.8152983764    2.7139840133
H        1.8554399583   -1.0849521434   -1.1603437514
H        3.6702229402   -2.0750006585    2.6066208981
H       -0.0406526993    0.0588422039    0.0463610729
H        1.7838047286   -0.9244852064    3.8234697866
H       -1.2509739880   -1.7927239103    2.5248358572
19   
torsion grid (0,)
C        1.7785310563   -1.0884672182   -0.0750800051
C        2.8453278150   -1.5996901547    2.0698962878
C        0.7355133508   -0.4517864130    0.5960309506
C        1.8025554597   -0.9606161913    2.7411572460
C        2.8103403817   -1.6541194636    0.6762588488
C        0.7606712887   -0.4060481937    1.9933138570
N       -1.7016691082   -0.9887028202    3.0996863121
N        3.9158484958   -2.3341019646   -0.0353680041
O        3.8578825533   -2.3758697374   -1.2666972562
O        4.8209788265   -2.8165320375    0.6495979976
O       -1.2410164165    1.3578990596    1.9696224663
O       -0.1408815390    0.7371584221    4.1957597491
S       -0.6002248175    0.3949993579    2.8563965174
Cl      -3.2224189225   -0.8465419183    2.2252223588
H        1.8056235912   -1.1458774074   -1.1568460773
H        3.6762693609   -2.0432968854    2.6056515414
H       -0.0771222767    0.0163702449    0.0494563837
H        1.7992317409   -0.8790898269    3.8233439703
H       -1.2460628374   -1.8087139150    2.6871095855
19   
torsion grid (15,)
C        1.7441473204   -1.1000036598   -0.0687199247
C        2.8083215167   -1.5968213411    2.0812398160
C        0.7144380450   -0.4340341117    0.5948508720
C        1.7781724207   -0.9303660599    2.7446067334
C        2.7676062504   -1.6721250665    0.6884604380
C        0.7434498731   -0.3686528270    1.9913822864
N       -1.7781250985   -0.8637705001    3.0842032752
N        3.8585694338   -2.3828116837   -0.0151880851
O        3.7995652991   -2.4401008233   -1.2458609240
O        4.7545941482   -2.8740718518    0.6756256367
O       -1.2174563858    1.4493047009    1.9733763701
O       -0.1534513939    0.7455425664    4.1991296381
S       -0.6093304815    0.4557827877    2.8454757801
Cl      -3.0520830957   -0.9036274620    1.8601649221
H        1.7667007627   -1.1753136617   -1.1494844499
H        3.6335190351   -2.0455820447    2.6216291378
H       -0.0912821591    0.0389019466    0.0424416660
H        1.7796083279   -0.8328174182    3.8253743880
H       -1.2692564077   -1.7377232372    2.9137402031
19   
torsion grid (30,)
C        1.7358259468   -1.0744017937   -0.0878673233
C        2.7853822109   -1.6108488508    2.0590179685
C        0.7166425979   -0.3967587108    0.5807393666
C        1.7656970718   -0.9340703578    2.7272621502
C        2.7471577925   -1.6718585911    0.6651198487
C        0.7423453763   -0.3463683380    1.9775648500
N       -1.7981250645   -0.7800879574    3.0864664926
N        3.8277837950   -2.3935277979   -0.0431544421
O        3.7750634052   -2.4301342977   -1.2749161457
O        4.7097428547   -2.9135930805    0.6448521812
O       -1.1926257306    1.4932334115    1.9716356476
O       -0.1401760036    0.7559882271    4.1968982617
S       -0.5985041309    0.4888299779    2.8384438432
Cl      -2.8275595485   -1.0514505586    1.6715969293
H        1.7587817369   -1.1395774051   -1.1692806092
H        3.6020028760   -2.0783172307    2.5965171023
H       -0.0791683502    0.0953680242    0.0315460458
H        1.7689456821   -0.8458796002    3.8089697078
H       -1.2838916344   -1.6637787765    3.1696227353
19   
torsion grid (45,)
C        1.7466246325   -1.0403447193   -0.1066951968
C        2.7784137989   -1.6371565462    2.0331498592
C        0.7335147289   -0.3634073768    0.5720044701
C        1.7646845429   -0.9610582598    2.7104074214
C        2.7457084390   -1.6674138209    0.6379401953
C        0.7527089729   -0.3431020524    1.9693525339
N       -1.7900524614   -0.7394733577    3.1064308166
N        3.8200394178   -2.3876935552   -0.0808880073
O        3.7723458507   -2.3949171259   -1.3133933965
O        4.6916307301   -2.9355184108    0.5989069367
O       -1.1691033861    1.4955666991    1.9746395556
O       -0.1160538164    0.7593208711    4.2031393974
S       -0.5772515782    0.4932837060    2.8445230975
Cl      -2.6125259809   -1.2494158182    1.6278686651
H        1.7734453976   -1.0830547805   -1.1891442291
H        3.5863894314   -2.1265368264    2.5641357228
H       -0.0527119098    0.1513271742    0.0302872762
H        1.7665282684   -0.8945499446    3.7937448734
H       -1.3087725797   -1.5827661620    3.4358767919
19   
torsion grid (60,)
C        1.7575389445   -1.0198962064   -0.1110133366
C        2.7551073722   -1.6562058469    2.0322522079
C        0.7392582116   -0.3452702819    0.5620932674
C        1.7358705471   -0.9834625480    2.7044059718
C        2.7425654413   -1.6655340127    0.6365371536
C        0.7389000561   -0.3466380294    1.9593914282
N       -1.8191424345   -0.7126543822    3.0863156833
N        3.8219290388   -2.3822903096   -0.0782231908
O        3.7919864372   -2.3730671703   -1.3113346439
O        4.6817290149   -2.9437851782    0.6055350482
O       -1.1651943078    1.4923683888    1.9482300940
O       -0.1486480402    0.7590256660    4.1960361481
S       -0.5925240499    0.4902075873    2.8311335521
Cl      -2.4515450678   -1.4446685963    1.6170967263
H        1.7989273343   -1.0468823051   -1.1934780347
H        3.5517633790   -2.1592172897    2.5674768583
H       -0.0353986405    0.1831416064    0.0172178908
H        1.7231548868   -0.9340380428    3.7886933028
H       -1.4203289591   -1.4728643221    3.6451187137
19   
torsion grid (75,)
C        1.7277864871   -0.9491558332   -0.1096028394
C        2.7275945443   -1.6906253129    1.9988288005
C        0.7205980194   -0.2938800848    0.5983081808
C        1.7195991497   -1.0353959667    2.7041808190
C        2.7083594745   -1.6383105006    0.6041675444
C        0.7268204348   -0.3547106690    1.9937864717
N       -1.8008569460   -0.7441545587    3.1755574700
N        3.7745841675   -2.3370971439   -0.1466716309
O        3.7438117666   -2.2672104080   -1.3778201160
O        4.6242608549   -2.9475159004    0.5072866484
O       -1.1785651023    1.4617065991    2.0360108225
O       -0.1310879852    0.7323032672    4.2692824161
S       -0.5891458144    0.4597260626    2.9089090661
Cl      -2.2969652489   -1.6722201431    1.7771512597
H        1.7629018441   -0.9301850511   -1.1924613424
H        3.5201299257   -2.2267603945    2.5073152020
H       -0.0537358100    0.2629926145    0.0819854789
H        1.7133258405   -1.0342827020    3.7896700416
H       -1.4897497649   -1.3862441130    3.9087627728
19   
torsion grid (90,)
C        1.7596703019   -0.9351795171   -0.1243933374
C        2.7192038465   -1.7097127044    1.9905332544
C        0.7459272226   -0.2809619748    0.5746425992
C        1.7033892947   -1.0573648203    2.6873936285
C        2.7241710630   -1.6394938211    0.5966555634
C        0.7289863071   -0.3596769142    1.9689019731
N       -1.8060444051   -0.7314378541    3.1274814424
N        3.7982694601   -2.3355372940   -0.1452347397
O        3.7819950961   -2.2583914908   -1.3762932358
O        4.6387413163   -2.9517633818    0.5150941274
O       -1.1521052533    1.4660019730    1.9837293945
O       -0.1558586751    0.7506494344    4.2397715614
S       -0.5892669880    0.4624073984    2.8732960463
Cl      -2.1501511237   -1.8485799387    1.8372361851
H        1.8125988587   -0.9034333342   -1.2062137130
H        3.4989573490   -2.2584447838    2.5052182888
H       -0.0168271715    0.2869323720    0.0531577381
H        1.6766344893   -1.0732354581    3.7725006277
H       -1.6433376721   -1.2243364781    4.0075742036
19   
torsion grid (105,)
C        1.8000405731   -0.9137085752   -0.1377225036
C        2.7060456333   -1.7429169652    1.9811443599
C        0.7838989353   -0.2551521223    0.5537988973
C        1.6879441185   -1.0858751096    2.6698879727
C        2.7386836626   -1.6466484224    0.5891366269
C        0.7404832163   -0.3583774234    1.9454728287
N       -1.7772670856   -0.7286039917    3.1058264079
N        3.8152943004   -2.3474484262   -0.1448127717
O        3.8224983122   -2.2509418650   -1.3745941672
O        4.6351858224   -2.9859310687    0.5203452209
O       -1.1346526239    1.4646162008    1.9307553942
O       -0.1522191512    0.8074994367    4.2016128395
S       -0.5755880069    0.4761139932    2.8409728358
Cl      -1.9655190338   -2.0330337497    1.9788834544
H        1.8737466310   -0.8643323750   -1.2176677931
H        3.4655201486   -2.3155394945    2.5000991206
H        0.0379327243    0.3322093822    0.0294423074
H        1.6376383655   -1.1240536839    3.7535931529
H       -1.7743532831   -1.0448675811    4.0762002707
19   
torsion grid (120,)
C        1.8767402007   -1.0964867773   -0.0313945062
C        2.9307339324   -1.6103736084    2.1186187147
C        0.8097625225   -0.4961757798    0.6351873198
C        1.8618237326   -1.0125898556    2.7845210729
C        2.9139360776   -1.6455033156    0.7237158059
C        0.8169181675   -0.4735692169    2.0313659619
N       -1.7501040714   -0.9656978048    3.1432209042
N        4.0439974801   -2.2887274981    0.0165076954
O        4.0053211423   -2.3088009571   -1.2161814909
O        4.9486657392   -2.7665276219    0.7058010238
O       -1.1650218772    1.2616960392    1.9668544715
O       -0.1315354120    0.7124904772    4.2366801411
S       -0.5472512316    0.3176414144    2.8877471896
Cl      -1.3333097641   -2.5830560397    2.5993553397
H        1.9158382649   -1.1407580105   -1.1133097538
H        3.7656396756   -2.0412170872    2.6583067809
H       -0.0123225978   -0.0485583012    0.0867388740
H        1.8408666738   -0.9556517357    3.8679708508
H       -1.8618938586   -1.0191903363    4.1607743950
19   
torsion grid (135,)
C        1.8622151428   -1.1260994828   -0.0293485886
C        2.9692183364   -1.5929741470    2.1060129857
C        0.8011214703   -0.5321373264    0.6516844524
C        1.9045244492   -1.0045616987    2.7870023378
C        2.9236173514   -1.6465696325    0.7124177186
C        0.8375083965   -0.4923553567    2.0471827072
N       -1.8054927333   -0.9493661192    2.9487124495
N        4.0505935915   -2.2785243554   -0.0100903978
O        3.9881461367   -2.3139395468   -1.2414007636
O        4.9780051951   -2.7305533596    0.6660827341
O       -1.0743180854    1.3628585279    2.0895497262
O       -0.1040831077    0.5393255813    4.3030621693
S       -0.5147719194    0.3011886721    2.9159533278
Cl      -1.2013060083   -2.6181348058    2.8526211520
H        1.8798138028   -1.1852677349   -1.1110723810
H        3.8212071828   -2.0048230378    2.6337707567
H       -0.0374599876   -0.1034832291    0.1125660027
H        1.8977783490   -0.9386819333    3.8697497919
H       -2.1337645408   -0.8975213438    3.9220652671
19   
torsion grid (150,)
C        1.8552420042   -1.1642346437   -0.0164200158
C        3.0082736387   -1.5950838334    2.1012235201
C        0.8011305371   -0.5745862174    0.6788789331
C        1.9503292474   -1.0118336700    2.7975686738
C        2.9376986260   -1.6637627020    0.7095824723
C        0.8647228505   -0.5185012382    2.0731282768
N       -1.7781285510   -0.9599862063    2.8114865643
N        4.0585364315   -2.2903591017   -0.0271863939
O        3.9789719108   -2.3296857242   -1.2574425099
O        5.0005132511   -2.7300941414    0.6368894124
O       -1.0109249600    1.3935241290    2.2075668198
O       -0.0934346021    0.3889382757    4.3659633830
S       -0.4826425560    0.2615634106    2.9594506231
Cl      -1.1753184390   -2.6197575226    3.0568754131
H        1.8519272455   -1.2360281470   -1.0975251702
H        3.8739973269   -1.9933939086    2.6167969319
H       -0.0532214544   -0.1632628161    0.1508931357
H        1.9595825052   -0.9391388962    3.8797517425
H       -2.3207115762   -0.8159459818    3.6745800091
19   
torsion grid (165,)
C        1.8245021130   -1.1682950778   -0.0338428284
C        3.0164486009   -1.5930320239    2.0639211338
C        0.7815815821   -0.5802072089    0.6789710371
C        1.9694622069   -1.0097464387    2.7773419145
C        2.9211019652   -1.6634516510    0.6740694986
C        0.8705180588   -0.5191771993    2.0717135319
N       -1.7411804706   -0.9521551248    2.7379046495
N        4.0295964910   -2.2888092595   -0.0820709690
O        3.9266940295   -2.3322775267   -1.3105288174
O        4.9840563543   -2.7266895023    0.5651047392
O       -0.9923491478    1.4107619491    2.2653193765
O       -0.0774326019    0.3326663543    4.3882591595
S       -0.4667113195    0.2517684391    2.9802746908
Cl      -1.2321578361   -2.5748881267    3.2643768852
H        1.8017686220   -1.2432912612   -1.1144802490
H        3.8913896715   -1.9898009510    2.5649682732
H       -0.0846841708   -0.1751925128    0.1659733071
H        1.9966209125   -0.9361396383    3.8592019405
H       -2.4526341859   -0.7048429511    3.4394503656
19   
torsion grid (180,)
C        1.8350087685   -1.1483026947   -0.0255701794
C        3.0185482417   -1.5774320406    2.0770084824
C        0.7801025263   -0.5795961686    0.6845615305
C        1.9590693998   -1.0110675451    2.7865930074
C        2.9330237311   -1.6355383793    0.6863173312
C        0.8592652756   -0.5264494639    2.0783784298
N       -1.7212669555   -1.0103012369    2.7133083549
N        4.0547851661   -2.2382191451   -0.0682905605
O        3.9590636571   -2.2778810936   -1.2975429654
O        5.0151512729   -2.6600331618    0.5807714278
O       -1.0496020861    1.3572851496    2.2585145126
O       -0.1098600822    0.3145305096    4.3907813867
S       -0.4954438676    0.2167577854    2.9846883406
Cl      -1.3312604789   -2.5486830371    3.5011903980
H        1.8206604487   -1.2150450008   -1.1068816813
H        3.8945454038   -1.9681398889    2.5810598449
H       -0.0884599824   -0.1826602754    0.1694584572
H        1.9794819733   -0.9433811299    3.8690032609
H       -2.5575921924   -0.6693557689    3.2050884299
