
  -OEChem-05262117483D

 30 30  0     1  0  0  0  0  0999 V2000
    5.3436   -1.7833   -2.0911 C   0  0  0  0  0  0  0  0  0  0  0  0
    6.0477   -1.8669   -0.8836 C   0  0  0  0  0  0  0  0  0  0  0  0
    4.0064   -1.3756   -2.0830 C   0  0  0  0  0  0  0  0  0  0  0  0
    5.4198   -1.5362    0.3186 C   0  0  0  0  0  0  0  0  0  0  0  0
    3.3761   -1.0431   -0.8775 C   0  0  0  0  0  0  0  0  0  0  0  0
    4.0822   -1.1132    0.3313 C   0  0  0  0  0  0  0  0  0  0  0  0
    3.7781    0.5116    4.5792 C   0  0  0  0  0  0  0  0  0  0  0  0
    3.1592    1.0946    5.8382 C   0  0  0  0  0  0  0  0  0  0  0  0
    3.6887    1.8287    1.1074 C   0  0  0  0  0  0  0  0  0  0  0  0
    3.4520   -0.6946    1.6395 C   0  0  1  0  0  0  0  0  0  0  0  0
    3.9622    0.6955    2.1126 C   0  0  2  0  0  0  0  0  0  0  0  0
    3.3136    1.0232    3.3894 N   0  0  0  0  0  0  0  0  0  0  0  0
    4.6344   -0.3691    4.6186 O   0  0  0  0  0  0  0  0  0  0  0  0
    4.6438    1.8937    0.0584 O   0  0  0  0  0  0  0  0  0  0  0  0
    2.0306   -0.6743    1.4904 O   0  0  0  0  0  0  0  0  0  0  0  0
    5.8322   -2.0394   -3.0274 H   0  0  0  0  0  0  0  0  0  0  0  0
    7.0854   -2.1900   -0.8798 H   0  0  0  0  0  0  0  0  0  0  0  0
    3.4496   -1.3179   -3.0149 H   0  0  0  0  0  0  0  0  0  0  0  0
    5.9711   -1.6025    1.2540 H   0  0  0  0  0  0  0  0  0  0  0  0
    2.3350   -0.7382   -0.8655 H   0  0  0  0  0  0  0  0  0  0  0  0
    2.8287    0.2750    6.4805 H   0  0  0  0  0  0  0  0  0  0  0  0
    3.9306    1.6474    6.3824 H   0  0  0  0  0  0  0  0  0  0  0  0
    2.3154    1.7630    5.6443 H   0  0  0  0  0  0  0  0  0  0  0  0
    3.7692    2.7884    1.6288 H   0  0  0  0  0  0  0  0  0  0  0  0
    2.6656    1.7379    0.7165 H   0  0  0  0  0  0  0  0  0  0  0  0
    3.7368   -1.4154    2.4149 H   0  0  0  0  0  0  0  0  0  0  0  0
    5.0410    0.6309    2.2803 H   0  0  0  0  0  0  0  0  0  0  0  0
    2.7363    1.8540    3.4288 H   0  0  0  0  0  0  0  0  0  0  0  0
    4.5296    1.1124   -0.5075 H   0  0  0  0  0  0  0  0  0  0  0  0
    1.6691   -0.4433    2.3618 H   0  0  0  0  0  0  0  0  0  0  0  0
  1  2  1  0  0  0  0
  1  3  2  0  0  0  0
  1 16  1  0  0  0  0
  2  4  2  0  0  0  0
  2 17  1  0  0  0  0
  3  5  1  0  0  0  0
  3 18  1  0  0  0  0
  4  6  1  0  0  0  0
  4 19  1  0  0  0  0
  5  6  2  0  0  0  0
  5 20  1  0  0  0  0
  6 10  1  0  0  0  0
  7  8  1  0  0  0  0
  7 12  1  0  0  0  0
  7 13  2  0  0  0  0
  8 21  1  0  0  0  0
  8 22  1  0  0  0  0
  8 23  1  0  0  0  0
  9 11  1  0  0  0  0
  9 14  1  0  0  0  0
  9 24  1  0  0  0  0
  9 25  1  0  0  0  0
 10 11  1  0  0  0  0
 10 15  1  0  0  0  0
 10 26  1  0  0  0  0
 11 12  1  0  0  0  0
 11 27  1  0  0  0  0
 12 28  1  0  0  0  0
 14 29  1  0  0  0  0
 15 30  1  0  0  0  0
M  END
$$$$
