30
0 1 C11H15NO3
C                     5.748931426435    -2.208261363264    -1.339704376150
C                     5.568247863140    -2.586923419295    -0.005146126663
C                     5.042112802294    -1.113071487801    -1.847999031687
C                     4.695994350954    -1.865573504280     0.815096388439
C                     4.170481872388    -0.393015220563    -1.025024898532
C                     3.998204442546    -0.756650284259     0.317960000608
C                     3.725317359569     3.203821103195     0.466043686509
C                     4.383806625943     4.026968266714    -0.622849038357
C                     5.033995186840     0.725597350604     2.850904412773
C                     3.120227206771     0.075012277224     1.233498181878
C                     3.912323267589     1.211345368602     1.929151754261
N                     4.472936636758     2.167799521218     0.971543593152
O                     2.595410379275     3.467379945553     0.884292653569
O                     5.555010648676     1.784242771784     3.648230300213
O                     2.032856390272     0.606433559108     0.482885375667
H                     6.422760667004    -2.770602511902    -1.980928791516
H                     6.099164230588    -3.447269063088     0.394220125321
H                     5.161626332301    -0.826388336893    -2.890023377688
H                     4.552411057933    -2.175316753376     1.848348071684
H                     3.589883067503     0.433676308413    -1.421852745645
H                     3.765389134511     3.972934987170    -1.522931218037
H                     4.407261019362     5.072271087789    -0.304083878748
H                     5.399519005712     3.701792723168    -0.862753415977
H                     5.830058780254     0.246107070085     2.263602461951
H                     4.642646879782    -0.018454970554     3.549544714251
H                     2.733779593987    -0.571639972294     2.035901932121
H                     3.205613463450     1.776624932455     2.543260896515
H                     5.243426804823     1.835360073227     0.401387285587
H                     5.748457119609     2.525839377303     3.050620638799
H                     1.834571181133     1.507916947124     0.797802300391
