
  -OEChem-05262117483D

 30 31  0     0  0  0  0  0  0999 V2000
    4.0886   -0.3094    7.3664 C   0  0  0  0  0  0  0  0  0  0  0  0
    1.9045   -2.1829    0.2799 C   0  0  0  0  0  0  0  0  0  0  0  0
    4.4253   -0.1993    6.0131 C   0  0  0  0  0  0  0  0  0  0  0  0
    2.8214   -0.7909    7.7146 C   0  0  0  0  0  0  0  0  0  0  0  0
    0.7807   -1.4905    0.7475 C   0  0  0  0  0  0  0  0  0  0  0  0
    2.8268   -2.6683    1.2030 C   0  0  0  0  0  0  0  0  0  0  0  0
    3.5158   -0.5603    5.0170 C   0  0  0  0  0  0  0  0  0  0  0  0
    1.9153   -1.1785    6.7267 C   0  0  0  0  0  0  0  0  0  0  0  0
    0.6151   -1.2600    2.1103 C   0  0  0  0  0  0  0  0  0  0  0  0
    2.6454   -2.4988    2.5849 C   0  0  0  0  0  0  0  0  0  0  0  0
    2.2547   -1.0702    5.3674 C   0  0  0  0  0  0  0  0  0  0  0  0
    1.5406   -1.7456    3.0554 C   0  0  0  0  0  0  0  0  0  0  0  0
    3.6530   -3.1699    3.4592 C   0  0  0  0  0  0  0  0  0  0  0  0
    4.0613   -4.1676    5.5580 C   0  0  0  0  0  0  0  0  0  0  0  0
    1.3057   -1.4689    4.4055 N   0  0  0  0  0  0  0  0  0  0  0  0
    4.8281   -3.3055    3.1602 O   0  0  0  0  0  0  0  0  0  0  0  0
    3.1169   -3.6515    4.5997 O   0  0  0  0  0  0  0  0  0  0  0  0
    4.7994   -0.0222    8.1360 H   0  0  0  0  0  0  0  0  0  0  0  0
    2.0542   -2.3432   -0.7837 H   0  0  0  0  0  0  0  0  0  0  0  0
    5.4010    0.1825    5.7238 H   0  0  0  0  0  0  0  0  0  0  0  0
    2.5414   -0.8829    8.7611 H   0  0  0  0  0  0  0  0  0  0  0  0
    0.0451   -1.1030    0.0472 H   0  0  0  0  0  0  0  0  0  0  0  0
    3.7039   -3.2169    0.8736 H   0  0  0  0  0  0  0  0  0  0  0  0
    3.7877   -0.4460    3.9729 H   0  0  0  0  0  0  0  0  0  0  0  0
    0.9467   -1.5894    7.0024 H   0  0  0  0  0  0  0  0  0  0  0  0
   -0.2308   -0.6719    2.4602 H   0  0  0  0  0  0  0  0  0  0  0  0
    3.4605   -4.4995    6.4043 H   0  0  0  0  0  0  0  0  0  0  0  0
    4.7465   -3.3740    5.8659 H   0  0  0  0  0  0  0  0  0  0  0  0
    4.6277   -4.9986    5.1318 H   0  0  0  0  0  0  0  0  0  0  0  0
    0.3531   -1.2043    4.6200 H   0  0  0  0  0  0  0  0  0  0  0  0
  1  3  1  0  0  0  0
  1  4  2  0  0  0  0
  1 18  1  0  0  0  0
  2  5  1  0  0  0  0
  2  6  2  0  0  0  0
  2 19  1  0  0  0  0
  3  7  2  0  0  0  0
  3 20  1  0  0  0  0
  4  8  1  0  0  0  0
  4 21  1  0  0  0  0
  5  9  2  0  0  0  0
  5 22  1  0  0  0  0
  6 10  1  0  0  0  0
  6 23  1  0  0  0  0
  7 11  1  0  0  0  0
  7 24  1  0  0  0  0
  8 11  2  0  0  0  0
  8 25  1  0  0  0  0
  9 12  1  0  0  0  0
  9 26  1  0  0  0  0
 10 12  2  0  0  0  0
 10 13  1  0  0  0  0
 11 15  1  0  0  0  0
 12 15  1  0  0  0  0
 13 16  2  0  0  0  0
 13 17  1  0  0  0  0
 14 17  1  0  0  0  0
 14 27  1  0  0  0  0
 14 28  1  0  0  0  0
 14 29  1  0  0  0  0
 15 30  1  0  0  0  0
M  END
$$$$
