30
0 1 C11H15NO3
C                     5.498149128611    -2.136400473916    -1.451271405445
C                     5.675766464520    -2.510559115465    -0.114742357148
C                     4.546882119184    -1.164249253032    -1.775808374977
C                     4.903497197381    -1.915193244801     0.885622862199
C                     3.782129523276    -0.564285049370    -0.772491140559
C                     3.957721068278    -0.932124060873     0.566611360014
C                     3.498496417516     1.995950359784     4.533792920879
C                     2.474083507136     2.518627210515     5.526196494463
C                     4.236751861628     2.061561047136     1.403913717580
C                     3.153924475990    -0.285621616132     1.677133690064
C                     3.859894273427     0.902917654052     2.350970021608
N                     2.992915747847     1.385733707505     3.420669690130
O                     4.710606410145     2.107811749195     4.729421215910
O                     5.385192659881     1.786173204957     0.606001755795
O                     1.881565387756     0.213099726238     1.229170094390
H                     6.094412880708    -2.600960844953    -2.232402517575
H                     6.407773855096    -3.270643489941     0.146303057504
H                     4.407452528594    -0.865209888340    -2.811583053451
H                     5.039081871027    -2.216443326667     1.923114853016
H                     3.061391554080     0.207902639810    -1.024375190628
H                     2.668001739553     2.064566360935     6.501517735552
H                     2.609303519474     3.598336779279     5.634819038881
H                     1.439379788085     2.315487065058     5.235995775633
H                     4.390392500919     2.957507611663     2.016871386099
H                     3.419446528758     2.258789193046     0.706649467354
H                     2.986933124308    -1.033805551864     2.465549640888
H                     4.775219259782     0.535560606569     2.823777444844
H                     1.997415535061     1.391469903800     3.236992698356
H                     6.151571390899     1.734348811633     1.198686534246
H                     1.410545747392    -0.516292137181     0.795924388057
