30
0 1 C11H15NO3
C                     5.793386217459    -1.405567592159    -1.447610112993
C                     4.761257808096    -0.549019265820    -1.842059176251
C                     5.817916756237    -1.895736367159    -0.138280418776
C                     3.770853778229    -0.171789300908    -0.930822284935
C                     4.824853557968    -1.519864450889     0.769835517645
C                     3.800139826220    -0.642724844430     0.389234805029
C                     3.727000799279     3.415442826900     1.686919748346
C                     3.609074594525     4.460182259457     0.591451906677
C                     4.459696220773     0.737000235768     3.097180920109
C                     2.761414937170    -0.201883926385     1.403126968654
C                     3.192887360087     1.016759499758     2.260551035651
N                     3.303808121130     2.167693474105     1.359068240313
O                     4.192082743250     3.718490973552     2.794467033534
O                     4.509053780444     1.468823668471     4.305079979793
O                     1.558207795474     0.114291577542     0.684268425239
H                     6.562806849588    -1.699535280131    -2.156711369491
H                     4.721909910537    -0.179614990462    -2.863706177893
H                     6.604657051548    -2.576861209886     0.175262343859
H                     2.952077173960     0.461523190186    -1.257093918530
H                     4.848674967533    -1.922505304370     1.779155071577
H                     2.916815715116     5.238878145690     0.924035454914
H                     4.586445714667     4.928216440752     0.451230889234
H                     3.263795598161     4.057956222700    -0.364620603334
H                     5.348272622072     0.899161035617     2.472009280640
H                     4.448298574463    -0.316530677087     3.392557891661
H                     2.573129219358    -1.028142561944     2.100392827579
H                     2.387086112231     1.202566085839     2.987446002860
H                     2.832120230493     2.057851911773     0.469997666876
H                     4.486647867000     2.414626685068     4.042767053426
H                     0.869279890811     0.328141475977     1.334190587744
