
  -OEChem-05262117483D

 18 18  0     0  0  0  0  0  0999 V2000
   -0.2567    0.8328   -2.1103 C   0  0  0  0  0  0  0  0  0  0  0  0
   -0.9600    0.5111   -3.2287 C   0  0  0  0  0  0  0  0  0  0  0  0
   -0.4630   -0.0650   -1.0024 C   0  0  0  0  0  0  0  0  0  0  0  0
   -1.3620   -1.0923   -1.3312 C   0  0  0  0  0  0  0  0  0  0  0  0
    0.1407    0.0039    0.3292 C   0  0  0  0  0  0  0  0  0  0  0  0
   -2.6917   -3.1557   -0.8419 C   0  0  0  0  0  0  0  0  0  0  0  0
    1.0104    1.0353    0.5832 N   0  0  0  0  0  0  0  0  0  0  0  0
   -1.7640   -2.0913   -0.5148 N   0  0  0  0  0  0  0  0  0  0  0  0
   -0.1050   -0.8297    1.2260 O   0  0  0  0  0  0  0  0  0  0  0  0
   -1.9308   -0.9327   -2.9858 S   0  0  0  0  0  0  0  0  0  0  0  0
    0.3979    1.6988   -2.0825 H   0  0  0  0  0  0  0  0  0  0  0  0
   -0.9853    1.0128   -4.1864 H   0  0  0  0  0  0  0  0  0  0  0  0
   -3.0424   -3.0543   -1.8706 H   0  0  0  0  0  0  0  0  0  0  0  0
   -3.5678   -3.1279   -0.1833 H   0  0  0  0  0  0  0  0  0  0  0  0
   -2.2118   -4.1368   -0.7451 H   0  0  0  0  0  0  0  0  0  0  0  0
    1.4250    1.0791    1.5039 H   0  0  0  0  0  0  0  0  0  0  0  0
    1.2489    1.7392   -0.0978 H   0  0  0  0  0  0  0  0  0  0  0  0
   -1.3366   -2.0342    0.4128 H   0  0  0  0  0  0  0  0  0  0  0  0
  1  2  2  0  0  0  0
  1  3  1  0  0  0  0
  1 11  1  0  0  0  0
  2 10  1  0  0  0  0
  2 12  1  0  0  0  0
  3  4  2  0  0  0  0
  3  5  1  0  0  0  0
  4  8  1  0  0  0  0
  4 10  1  0  0  0  0
  5  7  1  0  0  0  0
  5  9  2  0  0  0  0
  6  8  1  0  0  0  0
  6 13  1  0  0  0  0
  6 14  1  0  0  0  0
  6 15  1  0  0  0  0
  7 16  1  0  0  0  0
  7 17  1  0  0  0  0
  8 18  1  0  0  0  0
M  END
$$$$
