
  -OEChem-05262117483D

 26 25  0     1  0  0  0  0  0999 V2000
   -2.1507   -0.4289    1.8635 C   0  0  0  0  0  0  0  0  0  0  0  0
    0.1821    1.3026   -0.1300 C   0  0  0  0  0  0  0  0  0  0  0  0
   -2.5844   -0.2585    3.3090 C   0  0  0  0  0  0  0  0  0  0  0  0
   -2.1468    1.5326   -1.0777 C   0  0  0  0  0  0  0  0  0  0  0  0
    2.5094    0.9298    0.6099 C   0  0  0  0  0  0  0  0  0  0  0  0
    0.9846   -1.8975    0.2611 C   0  0  0  0  0  0  0  0  0  0  0  0
   -1.2471    0.7310   -0.1378 C   0  0  2  0  0  0  0  0  0  0  0  0
   -1.7621    0.7209    1.2280 N   0  0  0  0  0  0  0  0  0  0  0  0
    1.1879    0.4366    0.2459 N   0  0  0  0  0  0  0  0  0  0  0  0
   -2.1430   -1.5304    1.3147 O   0  0  0  0  0  0  0  0  0  0  0  0
    0.4294    2.4592   -0.4663 O   0  0  0  0  0  0  0  0  0  0  0  0
    0.7905   -0.6832    1.0020 O   0  0  0  0  0  0  0  0  0  0  0  0
   -3.5133   -0.8108    3.4664 H   0  0  0  0  0  0  0  0  0  0  0  0
   -1.8197   -0.7024    3.9536 H   0  0  0  0  0  0  0  0  0  0  0  0
   -2.7285    0.7849    3.6043 H   0  0  0  0  0  0  0  0  0  0  0  0
   -2.1938    2.5826   -0.7778 H   0  0  0  0  0  0  0  0  0  0  0  0
   -3.1535    1.1061   -1.0636 H   0  0  0  0  0  0  0  0  0  0  0  0
   -1.7608    1.4988   -2.1006 H   0  0  0  0  0  0  0  0  0  0  0  0
    2.5338    1.2487    1.6587 H   0  0  0  0  0  0  0  0  0  0  0  0
    2.7443    1.7768   -0.0338 H   0  0  0  0  0  0  0  0  0  0  0  0
    3.2430    0.1350    0.4555 H   0  0  0  0  0  0  0  0  0  0  0  0
    0.6098   -2.6873    0.9129 H   0  0  0  0  0  0  0  0  0  0  0  0
    2.0467   -2.0546    0.0384 H   0  0  0  0  0  0  0  0  0  0  0  0
    0.4056   -1.8860   -0.6673 H   0  0  0  0  0  0  0  0  0  0  0  0
   -1.2293   -0.3157   -0.4408 H   0  0  0  0  0  0  0  0  0  0  0  0
   -1.8031    1.6005    1.7262 H   0  0  0  0  0  0  0  0  0  0  0  0
  1  3  1  0  0  0  0
  1  8  1  0  0  0  0
  1 10  2  0  0  0  0
  2  7  1  0  0  0  0
  2  9  1  0  0  0  0
  2 11  2  0  0  0  0
  3 13  1  0  0  0  0
  3 14  1  0  0  0  0
  3 15  1  0  0  0  0
  4  7  1  0  0  0  0
  4 16  1  0  0  0  0
  4 17  1  0  0  0  0
  4 18  1  0  0  0  0
  5  9  1  0  0  0  0
  5 19  1  0  0  0  0
  5 20  1  0  0  0  0
  5 21  1  0  0  0  0
  6 12  1  0  0  0  0
  6 22  1  0  0  0  0
  6 23  1  0  0  0  0
  6 24  1  0  0  0  0
  7  8  1  0  0  0  0
  7 25  1  0  0  0  0
  8 26  1  0  0  0  0
  9 12  1  0  0  0  0
M  END
$$$$
