30
0 1 C11H15NO3
C                     5.461240912621    -1.975791369818    -1.386968807115
C                     5.435602356141    -2.398859320899    -0.054401391088
C                     4.575450232454    -0.978185116403    -1.812251401864
C                     4.539044618395    -1.812528373216     0.847402482522
C                     3.683293920866    -0.393918679523    -0.909833375767
C                     3.668125971598    -0.793829528941     0.433507156918
C                     2.633385432397     3.104434563807     0.619879253517
C                     3.052920569959     4.227239308587    -0.306793572989
C                     4.757627911728     0.969037065917     2.714504822098
C                     2.767785796861    -0.092447740255     1.432722156680
C                     3.409097595261     1.200996567399     2.007207901135
N                     3.610132155181     2.244391159577     1.007706494791
O                     1.459539180225     2.987078875587     1.002325386988
O                     5.866990258874     0.935263134795     1.815082193018
O                     1.504711990639     0.170012662508     0.841164546855
H                     6.153703689302    -2.429540930905    -2.091067439226
H                     6.102684777778    -3.188556547336     0.281503871293
H                     4.578349345678    -0.659866577067    -2.851837971333
H                     4.511061034273    -2.160874702947     1.878396240693
H                     2.976837724904     0.361561414004    -1.237432132888
H                     2.417480447805     4.206007845753    -1.195664292069
H                     2.876675565187     5.180317225930     0.199838386586
H                     4.101999737196     4.172288949061    -0.608628607345
H                     4.706979921678     0.056230365114     3.321404591620
H                     4.956343691195     1.808341697754     3.385115061819
H                     2.628421443238    -0.760045453492     2.297631123107
H                     2.700024094107     1.588502534606     2.748265317410
H                     4.556354835764     2.344890473971     0.657755630964
H                     5.822317917806     0.105024012383     1.308899917654
H                     1.240620885967     1.095098094968     1.028632458330
