
  -OEChem-05262117483D

 52 55  0     0  0  0  0  0  0999 V2000
   -8.3447    1.2850    4.9423 C   0  0  0  0  0  0  0  0  0  0  0  0
   -1.8315   -5.8366    3.1738 C   0  0  0  0  0  0  0  0  0  0  0  0
   -6.9552    1.1700    5.0027 C   0  0  0  0  0  0  0  0  0  0  0  0
   -9.0601    0.5064    4.0243 C   0  0  0  0  0  0  0  0  0  0  0  0
   -0.5240   -5.3387    3.2603 C   0  0  0  0  0  0  0  0  0  0  0  0
   -2.6003   -5.5540    2.0447 C   0  0  0  0  0  0  0  0  0  0  0  0
   -6.2785    0.2746    4.1655 C   0  0  0  0  0  0  0  0  0  0  0  0
   -8.3902   -0.3724    3.1739 C   0  0  0  0  0  0  0  0  0  0  0  0
    0.0218   -4.5913    2.2156 C   0  0  0  0  0  0  0  0  0  0  0  0
   -2.0782   -4.7832    0.9871 C   0  0  0  0  0  0  0  0  0  0  0  0
   -6.9940   -0.5014    3.2440 C   0  0  0  0  0  0  0  0  0  0  0  0
   -0.7435   -4.3312    1.0759 C   0  0  0  0  0  0  0  0  0  0  0  0
   -2.2026   -3.8291   -1.2440 C   0  0  0  0  0  0  0  0  0  0  0  0
   -2.8495   -4.3341   -0.1784 C   0  0  0  0  0  0  0  0  0  0  0  0
   -4.9260   -1.2429    2.1328 C   0  0  0  0  0  0  0  0  0  0  0  0
   -6.6655   -2.8284    2.5946 C   0  0  0  0  0  0  0  0  0  0  0  0
   -4.4832   -2.0269    0.9044 C   0  0  0  0  0  0  0  0  0  0  0  0
   -6.2777   -3.6745    1.3887 C   0  0  0  0  0  0  0  0  0  0  0  0
   -0.6902   -3.8027   -1.2773 C   0  0  0  0  0  0  0  0  0  0  0  0
   -0.1722   -2.6125   -2.0807 C   0  0  0  0  0  0  0  0  0  0  0  0
   -0.1273   -5.1293   -1.8031 C   0  0  0  0  0  0  0  0  0  0  0  0
   -4.3477   -4.3432   -0.0956 C   0  0  0  0  0  0  0  0  0  0  0  0
   -6.3524   -1.4235    2.3480 N   0  0  0  0  0  0  0  0  0  0  0  0
   -4.8136   -3.4909    1.0777 N   0  3  0  0  0  0  0  0  0  0  0  0
   -0.1959   -3.5773    0.0829 O   0  0  0  0  0  0  0  0  0  0  0  0
   -8.8660    1.9777    5.5962 H   0  0  0  0  0  0  0  0  0  0  0  0
   -2.2386   -6.4490    3.9724 H   0  0  0  0  0  0  0  0  0  0  0  0
   -6.3892    1.7705    5.7094 H   0  0  0  0  0  0  0  0  0  0  0  0
  -10.1404    0.5990    3.9563 H   0  0  0  0  0  0  0  0  0  0  0  0
    0.0799   -5.5512    4.1377 H   0  0  0  0  0  0  0  0  0  0  0  0
   -3.5963   -5.9887    1.9672 H   0  0  0  0  0  0  0  0  0  0  0  0
   -5.1994    0.1920    4.2482 H   0  0  0  0  0  0  0  0  0  0  0  0
   -8.9465   -0.9425    2.4340 H   0  0  0  0  0  0  0  0  0  0  0  0
    1.0393   -4.2148    2.2602 H   0  0  0  0  0  0  0  0  0  0  0  0
   -2.7411   -3.4433   -2.1069 H   0  0  0  0  0  0  0  0  0  0  0  0
   -4.3141   -1.5530    3.0008 H   0  0  0  0  0  0  0  0  0  0  0  0
   -4.7152   -0.1874    1.9464 H   0  0  0  0  0  0  0  0  0  0  0  0
   -7.7369   -2.9478    2.7601 H   0  0  0  0  0  0  0  0  0  0  0  0
   -6.1553   -3.2104    3.4994 H   0  0  0  0  0  0  0  0  0  0  0  0
   -5.0138   -1.6905    0.0112 H   0  0  0  0  0  0  0  0  0  0  0  0
   -3.4074   -1.9534    0.7436 H   0  0  0  0  0  0  0  0  0  0  0  0
   -6.4429   -4.7381    1.5751 H   0  0  0  0  0  0  0  0  0  0  0  0
   -6.8314   -3.3678    0.4991 H   0  0  0  0  0  0  0  0  0  0  0  0
    0.9185   -2.5761   -2.0302 H   0  0  0  0  0  0  0  0  0  0  0  0
   -0.5689   -1.6732   -1.6853 H   0  0  0  0  0  0  0  0  0  0  0  0
   -0.4674   -2.7073   -3.1295 H   0  0  0  0  0  0  0  0  0  0  0  0
    0.9659   -5.0969   -1.7966 H   0  0  0  0  0  0  0  0  0  0  0  0
   -0.4651   -5.3029   -2.8292 H   0  0  0  0  0  0  0  0  0  0  0  0
   -0.4591   -5.9700   -1.1877 H   0  0  0  0  0  0  0  0  0  0  0  0
   -4.7513   -5.3441    0.0806 H   0  0  0  0  0  0  0  0  0  0  0  0
   -4.8114   -3.9339   -0.9941 H   0  0  0  0  0  0  0  0  0  0  0  0
   -4.2760   -3.8202    1.8929 H   0  0  0  0  0  0  0  0  0  0  0  0
  1  3  1  0  0  0  0
  1  4  2  0  0  0  0
  1 26  1  0  0  0  0
  2  5  2  0  0  0  0
  2  6  1  0  0  0  0
  2 27  1  0  0  0  0
  3  7  2  0  0  0  0
  3 28  1  0  0  0  0
  4  8  1  0  0  0  0
  4 29  1  0  0  0  0
  5  9  1  0  0  0  0
  5 30  1  0  0  0  0
  6 10  2  0  0  0  0
  6 31  1  0  0  0  0
  7 11  1  0  0  0  0
  7 32  1  0  0  0  0
  8 11  2  0  0  0  0
  8 33  1  0  0  0  0
  9 12  2  0  0  0  0
  9 34  1  0  0  0  0
 10 12  1  0  0  0  0
 10 14  1  0  0  0  0
 11 23  1  0  0  0  0
 12 25  1  0  0  0  0
 13 14  2  0  0  0  0
 13 19  1  0  0  0  0
 13 35  1  0  0  0  0
 14 22  1  0  0  0  0
 15 17  1  0  0  0  0
 15 23  1  0  0  0  0
 15 36  1  0  0  0  0
 15 37  1  0  0  0  0
 16 18  1  0  0  0  0
 16 23  1  0  0  0  0
 16 38  1  0  0  0  0
 16 39  1  0  0  0  0
 17 24  1  0  0  0  0
 17 40  1  0  0  0  0
 17 41  1  0  0  0  0
 18 24  1  0  0  0  0
 18 42  1  0  0  0  0
 18 43  1  0  0  0  0
 19 20  1  0  0  0  0
 19 21  1  0  0  0  0
 19 25  1  0  0  0  0
 20 44  1  0  0  0  0
 20 45  1  0  0  0  0
 20 46  1  0  0  0  0
 21 47  1  0  0  0  0
 21 48  1  0  0  0  0
 21 49  1  0  0  0  0
 22 24  1  0  0  0  0
 22 50  1  0  0  0  0
 22 51  1  0  0  0  0
 24 52  1  0  0  0  0
M  CHG  1  24   1
M  END
$$$$
