
  -OEChem-05262117483D

 65 69  0     0  0  0  0  0  0999 V2000
   -4.5444    1.8466    3.4964 C   0  0  0  0  0  0  0  0  0  0  0  0
   -2.2047    2.2298    3.8987 C   0  0  0  0  0  0  0  0  0  0  0  0
    0.1884   -0.3229   -0.5183 C   0  0  0  0  0  0  0  0  0  0  0  0
   -3.6469   -3.4026   -1.7408 C   0  0  0  0  0  0  0  0  0  0  0  0
   -5.2517   -1.9710   -0.6373 C   0  0  0  0  0  0  0  0  0  0  0  0
   -0.8272   -1.2390   -0.2297 C   0  0  0  0  0  0  0  0  0  0  0  0
   -4.8667    2.8944    4.3658 C   0  0  0  0  0  0  0  0  0  0  0  0
   -2.5138    3.2803    4.7596 C   0  0  0  0  0  0  0  0  0  0  0  0
   -4.3512   -3.2933   -2.9467 C   0  0  0  0  0  0  0  0  0  0  0  0
   -5.9635   -1.8472   -1.8322 C   0  0  0  0  0  0  0  0  0  0  0  0
   -0.6960    1.2628    1.0983 C   0  0  0  0  0  0  0  0  0  0  0  0
   -1.7197    0.3588    1.4312 C   0  0  0  0  0  0  0  0  0  0  0  0
   -3.2091    1.4900    3.2392 C   0  0  0  0  0  0  0  0  0  0  0  0
   -2.8605    0.3943    2.3212 C   0  0  0  0  0  0  0  0  0  0  0  0
   -4.0840   -2.7520   -0.5822 C   0  0  0  0  0  0  0  0  0  0  0  0
    0.2654    0.9227    0.1395 C   0  0  0  0  0  0  0  0  0  0  0  0
   -1.7615   -0.8955    0.7491 C   0  0  0  0  0  0  0  0  0  0  0  0
   -3.8511    3.6223    4.9976 C   0  0  0  0  0  0  0  0  0  0  0  0
   -5.4991   -2.5123   -2.9636 C   0  0  0  0  0  0  0  0  0  0  0  0
   -3.5361   -0.8113    2.1565 C   0  0  0  0  0  0  0  0  0  0  0  0
   -4.8143   -1.3751    2.7878 C   0  0  0  0  0  0  0  0  0  0  0  0
    2.6387   -2.7053    1.2014 C   0  0  0  0  0  0  0  0  0  0  0  0
    2.3705   -2.8241    2.6874 C   0  0  0  0  0  0  0  0  0  0  0  0
    3.1597   -1.6485    2.1483 C   0  0  0  0  0  0  0  0  0  0  0  0
   -5.3800    6.1760    7.1588 C   0  0  0  0  0  0  0  0  0  0  0  0
    1.4367    1.8441   -0.1207 C   0  0  0  0  0  0  0  0  0  0  0  0
   -3.3110   -2.8762    0.7190 C   0  0  0  0  0  0  0  0  0  0  0  0
    2.5227   -0.2861    2.1603 C   0  0  0  0  0  0  0  0  0  0  0  0
   -5.4111    5.0213    6.1694 C   0  0  0  0  0  0  0  0  0  0  0  0
    2.5101    1.8012    0.9806 C   0  0  0  0  0  0  0  0  0  0  0  0
   -2.8551   -1.5915    1.2274 N   0  0  0  0  0  0  0  0  0  0  0  0
   -4.6516   -2.3960    3.5005 O   0  5  0  0  0  0  0  0  0  0  0  0
   -5.8776   -0.7812    2.4532 O   0  0  0  0  0  0  0  0  0  0  0  0
   -4.0634    4.6770    5.8671 O   0  0  0  0  0  0  0  0  0  0  0  0
    3.1102    0.5160    1.1287 O   0  0  0  0  0  0  0  0  0  0  0  0
   -6.1973   -2.3935   -4.1347 F   0  0  0  0  0  0  0  0  0  0  0  0
   -5.3364    1.2776    3.0175 H   0  0  0  0  0  0  0  0  0  0  0  0
   -1.1631    1.9543    3.7616 H   0  0  0  0  0  0  0  0  0  0  0  0
    0.9449   -0.5775   -1.2569 H   0  0  0  0  0  0  0  0  0  0  0  0
   -2.7401   -4.0037   -1.7099 H   0  0  0  0  0  0  0  0  0  0  0  0
   -5.6060   -1.4586    0.2562 H   0  0  0  0  0  0  0  0  0  0  0  0
   -0.8879   -2.1834   -0.7637 H   0  0  0  0  0  0  0  0  0  0  0  0
   -5.9131    3.1259    4.5351 H   0  0  0  0  0  0  0  0  0  0  0  0
   -1.7317    3.8372    5.2697 H   0  0  0  0  0  0  0  0  0  0  0  0
   -4.0193   -3.7911   -3.8532 H   0  0  0  0  0  0  0  0  0  0  0  0
   -6.8674   -1.2478   -1.8904 H   0  0  0  0  0  0  0  0  0  0  0  0
   -0.6471    2.2355    1.5821 H   0  0  0  0  0  0  0  0  0  0  0  0
    3.3560   -3.3866    0.7513 H   0  0  0  0  0  0  0  0  0  0  0  0
    1.8053   -2.4268    0.5644 H   0  0  0  0  0  0  0  0  0  0  0  0
    1.3560   -2.6386    3.0297 H   0  0  0  0  0  0  0  0  0  0  0  0
    2.9051   -3.5829    3.2525 H   0  0  0  0  0  0  0  0  0  0  0  0
    4.2312   -1.6532    2.3384 H   0  0  0  0  0  0  0  0  0  0  0  0
   -4.8574    5.8835    8.0749 H   0  0  0  0  0  0  0  0  0  0  0  0
   -4.8622    7.0387    6.7280 H   0  0  0  0  0  0  0  0  0  0  0  0
   -6.4004    6.4769    7.4206 H   0  0  0  0  0  0  0  0  0  0  0  0
    1.9146    1.5846   -1.0720 H   0  0  0  0  0  0  0  0  0  0  0  0
    1.0975    2.8861   -0.2053 H   0  0  0  0  0  0  0  0  0  0  0  0
   -3.9264   -3.3239    1.5031 H   0  0  0  0  0  0  0  0  0  0  0  0
   -2.4381   -3.5216    0.5761 H   0  0  0  0  0  0  0  0  0  0  0  0
    2.6860    0.2029    3.1353 H   0  0  0  0  0  0  0  0  0  0  0  0
    1.4417   -0.3789    2.0117 H   0  0  0  0  0  0  0  0  0  0  0  0
   -5.9423    5.3122    5.2518 H   0  0  0  0  0  0  0  0  0  0  0  0
   -5.9345    4.1557    6.5993 H   0  0  0  0  0  0  0  0  0  0  0  0
    3.3217    2.4944    0.7235 H   0  0  0  0  0  0  0  0  0  0  0  0
    2.0785    2.1333    1.9360 H   0  0  0  0  0  0  0  0  0  0  0  0
  1  7  1  0  0  0  0
  1 13  2  0  0  0  0
  1 37  1  0  0  0  0
  2  8  2  0  0  0  0
  2 13  1  0  0  0  0
  2 38  1  0  0  0  0
  3  6  2  0  0  0  0
  3 16  1  0  0  0  0
  3 39  1  0  0  0  0
  4  9  2  0  0  0  0
  4 15  1  0  0  0  0
  4 40  1  0  0  0  0
  5 10  1  0  0  0  0
  5 15  2  0  0  0  0
  5 41  1  0  0  0  0
  6 17  1  0  0  0  0
  6 42  1  0  0  0  0
  7 18  2  0  0  0  0
  7 43  1  0  0  0  0
  8 18  1  0  0  0  0
  8 44  1  0  0  0  0
  9 19  1  0  0  0  0
  9 45  1  0  0  0  0
 10 19  2  0  0  0  0
 10 46  1  0  0  0  0
 11 12  1  0  0  0  0
 11 16  2  0  0  0  0
 11 47  1  0  0  0  0
 12 14  1  0  0  0  0
 12 17  2  0  0  0  0
 13 14  1  0  0  0  0
 14 20  2  0  0  0  0
 15 27  1  0  0  0  0
 16 26  1  0  0  0  0
 17 31  1  0  0  0  0
 18 34  1  0  0  0  0
 19 36  1  0  0  0  0
 20 21  1  0  0  0  0
 20 31  1  0  0  0  0
 21 32  1  0  0  0  0
 21 33  2  0  0  0  0
 22 23  1  0  0  0  0
 22 24  1  0  0  0  0
 22 48  1  0  0  0  0
 22 49  1  0  0  0  0
 23 24  1  0  0  0  0
 23 50  1  0  0  0  0
 23 51  1  0  0  0  0
 24 28  1  0  0  0  0
 24 52  1  0  0  0  0
 25 29  1  0  0  0  0
 25 53  1  0  0  0  0
 25 54  1  0  0  0  0
 25 55  1  0  0  0  0
 26 30  1  0  0  0  0
 26 56  1  0  0  0  0
 26 57  1  0  0  0  0
 27 31  1  0  0  0  0
 27 58  1  0  0  0  0
 27 59  1  0  0  0  0
 28 35  1  0  0  0  0
 28 60  1  0  0  0  0
 28 61  1  0  0  0  0
 29 34  1  0  0  0  0
 29 62  1  0  0  0  0
 29 63  1  0  0  0  0
 30 35  1  0  0  0  0
 30 64  1  0  0  0  0
 30 65  1  0  0  0  0
M  CHG  1  32  -1
M  END
$$$$
