41
0 1 C16H21NO3
C                     2.161828433742    -1.658938693691     3.598334091059
C                     2.805521889430    -1.719979882912     4.840858686749
C                     0.398213889231    -0.346354660171     4.592960129552
C                     0.949865441250    -0.979188711566     3.464325005516
C                     2.261637748679    -1.098121220871     5.960184906303
C                     1.042350991217    -0.390274347200     5.833028586261
C                    -1.811420630686     0.384677917190     2.175397003100
C                    -0.831356570053     1.670056204168     8.193526872180
C                    -1.955555358110     1.636934076492     8.928548874199
C                    -0.342866921969     0.428640790370     1.754341549994
C                    -1.034337068038    -1.866974553863     2.132268996929
C                     0.232002428338    -0.955931648329     2.128238338783
C                    -2.028684791068     2.365218742434    10.249915529589
C                    -3.226739741730     0.919842450492     8.542500245155
C                     2.327394811740    -1.839992982664     8.218526187882
C                    -0.601700095417     1.038174290745     6.856098005663
N                    -2.110846956214    -0.929620766911     2.428774523551
O                    -2.585557126071     1.329536373633     2.271936018750
O                     2.961402620522    -1.127683372364     7.145276803922
O                     0.578026691426     0.218529375467     6.964160728217
H                     2.610810970719    -2.145783071617     2.735878548934
H                     3.751444209029    -2.241265045205     4.958645707314
H                    -0.537117176043     0.190562460427     4.497222886169
H                     0.026482144331     2.221606445211     8.576754478681
H                    -0.317903246352     0.596811752140     0.671774127953
H                     0.170686400349     1.264504278058     2.231337802444
H                    -1.179193609053    -2.345237825892     1.153570647425
H                    -0.966052871581    -2.648223688386     2.893912883104
H                     0.926546204983    -1.311834676255     1.364118109642
H                    -2.833988395383     3.110855436036    10.240254775179
H                    -2.256930759724     1.666716265161    11.065074006390
H                    -1.092271468438     2.876456925039    10.487801752330
H                    -3.552641115322     0.263043783596     9.358293586440
H                    -4.036971716286     1.641160069822     8.377591936061
H                    -3.132241116985     0.314874886887     7.639338317611
H                     3.034127042410    -1.820368149467     9.050719704611
H                     2.137013811470    -2.880850424122     7.926495923514
H                     1.391461786222    -1.360134844607     8.516491449840
H                    -0.426456256885     1.808873848940     6.092486019481
H                    -1.448802947219     0.427314979203     6.530095728560
H                    -3.070651668423    -1.209108975750     2.589252412867
