51
0 1 C22H26N2O
C                    -8.301332874995    -3.411832166123     6.869974291568
C                    -2.438087629700    -1.673620837111    -1.614073541615
C                    -8.780605176837    -3.810278073102     5.620977112451
C                    -7.203563445842    -2.543640824585     6.915220721116
C                    -1.051449187918    -1.500745463480    -1.521853548648
C                    -3.054203512481    -2.713215942208    -0.915782243091
C                    -8.175159782086    -3.368672949080     4.440725064309
C                    -6.602679468686    -2.086028936624     5.744700183668
C                    -0.283717181436    -2.372712161617    -0.746176830073
C                    -2.303491591378    -3.604866286298    -0.132237204446
C                    -7.069513465483    -2.492008596674     4.473242511770
C                    -0.905850968000    -3.421559575694    -0.065841207529
C                    -2.061450422641    -5.609568083540     1.198514678656
C                    -2.887586569550    -4.693851246752     0.663640642475
C                    -7.009680244957    -2.336761999800     1.998209898847
C                    -5.008604121249    -1.905613168748     3.233007014982
C                    -6.429118667689    -3.654616786508     1.473174494704
C                    -4.411244194436    -3.221974268110     2.729119553634
C                    -0.573054357143    -5.589027260467     0.938358212924
C                    -0.229053276117    -6.420265019652    -0.307805862534
C                     0.212193547307    -6.067470071740     2.158779457532
C                    -4.382942812940    -4.782089964391     0.862344467829
N                    -6.474006786055    -1.971582400120     3.307571724705
N                    -4.968969457267    -3.562609067686     1.417717442707
O                    -0.120408395129    -4.221589717434     0.719959845859
H                    -8.770500331621    -3.763313669740     7.784487239618
H                    -3.034713132630    -0.995196607945    -2.217592075140
H                    -9.630167300349    -4.486050865146     5.554627296830
H                    -6.818217669970    -2.203365124664     7.873533889148
H                    -0.564924792867    -0.688959115536    -2.056614287988
H                    -4.132139496197    -2.822838996687    -0.951153183409
H                    -8.568294120439    -3.727213486184     3.496841389330
H                    -5.782156770126    -1.379953250828     5.819757943673
H                     0.793137619155    -2.259367456734    -0.660637900478
H                    -2.449755685564    -6.422942566378     1.807969479796
H                    -6.731113206639    -1.539533877850     1.298902363116
H                    -8.099775477408    -2.369309430442     2.031307070526
H                    -4.586187015804    -1.659886360115     4.206009184571
H                    -4.736518747039    -1.102067469960     2.539211526664
H                    -6.757561113204    -4.494675284199     2.113419540640
H                    -6.807086332091    -3.843423664495     0.461048285391
H                    -3.327138200239    -3.114260664928     2.632364961772
H                    -4.603919352542    -4.020700945836     3.471527086186
H                     0.850166269258    -6.398657078983    -0.491469492583
H                    -0.744702097855    -6.021902283455    -1.186294722711
H                    -0.542613866732    -7.460251123207    -0.170280801892
H                     1.286606745414    -5.991225801176     1.968838748577
H                    -0.028994481931    -7.111849293370     2.379751917178
H                    -0.032334738445    -5.457763043574     3.032979045369
H                    -4.601448031467    -5.664336840031     1.492306663918
H                    -4.864345296477    -4.962215542069    -0.108335714494
