65
-1 1 C30FH29NO4
C                    -5.782170803906     2.721321386587     4.496825754547
C                    -3.380933471750     2.821122393441     4.584068539509
C                    -1.780220818604     0.260901843584    -0.134664804900
C                    -6.135686226591    -2.093479010902    -1.208732058698
C                    -7.410258349795    -0.554771533227     0.151009787162
C                    -2.895933408697    -0.519317755509     0.183430807952
C                    -5.860113378767     3.727477773158     5.466288919246
C                    -3.447972096180     3.829742835484     5.541890493504
C                    -6.914471025178    -1.776849118380    -2.329419210910
C                    -8.193493851522    -0.223881590195    -0.956783226756
C                    -2.290734721652     1.833153727057     1.649102638746
C                    -3.406034299516     1.060081835676     2.013928467586
C                    -4.544210282281     2.242749117401     4.031782493431
C                    -4.449121910702     1.187162128828     3.011594470400
C                    -6.371814316259    -1.495243078843     0.033420213199
C                    -1.472123675766     1.434824635947     0.587615583571
C                    -3.689553584550    -0.117628828329     1.260111043564
C                    -4.691274667038     4.292022479202     5.990840353788
C                    -7.930212784865    -0.842886029114    -2.175572975689
C                    -5.306824245535     0.104951726776     2.834467269008
C                    -6.591993094757    -0.330446545448     3.548591650219
C                     1.416912431875     1.722593039354     6.093147125862
C                    -0.017918728827     1.785313498369     5.611322485914
C                     1.065956337727     2.501343854181     4.841462446196
C                    -5.609341050641     6.832822807523     8.487967824498
C                    -0.224633159420     2.226035653172     0.256194478913
C                    -5.518278738658    -1.842803241743     1.240705279148
C                     1.506858624453     1.963244107186     3.506183975942
C                    -5.905997821402     5.763361692087     7.447943614893
C                     0.940669341474     1.927350016986     1.202925846966
N                    -4.830438033865    -0.687280507214     1.793937928005
O                    -6.515838260434    -1.422251306045     4.164828016067
O                    -7.586176667017     0.428064008378     3.368435200343
O                    -4.660135498665     5.294511133234     6.945165541816
O                     0.636786311936     2.443196454662     2.493115095638
F                    -8.698385114413    -0.520722567542    -3.262090276974
H                    -6.693382352925     2.285786602518     4.096592615041
H                    -2.405539527004     2.458922722929     4.279055960049
H                    -1.143897012842    -0.035520808595    -0.967153290299
H                    -5.328935116225    -2.816643474573    -1.311890980710
H                    -7.606963710954    -0.079480951222     1.111243461002
H                    -3.140647022892    -1.400567476072    -0.403245179148
H                    -6.840372568204     4.056935524529     5.794739455881
H                    -2.543834249439     4.266624624268     5.959333333168
H                    -6.737612778103    -2.232365967305    -3.299473059086
H                    -8.999013889317     0.500865383216    -0.881290784714
H                    -2.049696317270     2.745614742847     2.182997607127
H                     1.686405356347     2.280994855250     6.985395831791
H                     1.953331972434     0.784176362932     5.974093757774
H                    -0.447484129371     0.896224657734     5.159078037109
H                    -0.725428236151     2.379864076288     6.179875190735
H                     1.083659564427     3.586127946640     4.918551664595
H                    -5.011327822811     6.418665893748     9.305754131827
H                    -5.051992149226     7.661553446795     8.040024141762
H                    -6.543875312622     7.225600088845     8.903774051345
H                     0.107839213976     1.998636346886    -0.764241024424
H                    -0.423052747819     3.303871061468     0.295469572272
H                    -6.125397169495    -2.263710964447     2.045717698412
H                    -4.769552904295    -2.593150205199     0.965559371498
H                     1.489488599475     0.860751655008     3.525355261936
H                     2.545568617164     2.271770920752     3.290876749928
H                    -6.512932490161     6.177163009360     6.629813950931
H                    -6.469836758508     4.932689316417     7.895545787824
H                     1.098932634747     0.838836897392     1.260230272481
H                     1.873074384862     2.386723742260     0.829392407125
