
  -OEChem-05262117483D

 54 58  0     1  0  0  0  0  0999 V2000
   -6.3787   -1.1624    6.6110 C   0  0  0  0  0  0  0  0  0  0  0  0
   -5.2160   -2.6163    5.0941 C   0  0  0  0  0  0  0  0  0  0  0  0
   -5.8403   -1.8476    7.6947 C   0  0  0  0  0  0  0  0  0  0  0  0
   -4.6609   -3.3188    6.1705 C   0  0  0  0  0  0  0  0  0  0  0  0
   -6.0781   -1.5349    5.2910 C   0  0  0  0  0  0  0  0  0  0  0  0
   -4.9731   -2.9312    7.4800 C   0  0  0  0  0  0  0  0  0  0  0  0
   -2.3304   -0.2826    4.2456 C   0  0  0  0  0  0  0  0  0  0  0  0
   -3.7903   -0.5327    2.5493 C   0  0  0  0  0  0  0  0  0  0  0  0
   -1.1040   -0.3158    1.0447 C   0  0  0  0  0  0  0  0  0  0  0  0
   -1.0452   -0.4429    4.9913 C   0  0  0  0  0  0  0  0  0  0  0  0
    0.1235   -0.6491    4.0123 C   0  0  0  0  0  0  0  0  0  0  0  0
   -0.2230   -1.7265    2.9733 C   0  0  0  0  0  0  0  0  0  0  0  0
   -7.2452   -1.4498    2.9712 C   0  0  0  0  0  0  0  0  0  0  0  0
   -8.0702   -0.5818    3.8992 C   0  0  0  0  0  0  0  0  0  0  0  0
   -2.1975   -1.6922   -0.8523 C   0  0  0  0  0  0  0  0  0  0  0  0
   -1.2600    0.1823   -1.4050 C   0  0  0  0  0  0  0  0  0  0  0  0
   -1.4549   -1.3601    2.1217 C   0  0  1  0  0  0  0  0  0  0  0  0
   -2.2409   -0.7854   -2.1018 C   0  0  0  0  0  0  0  0  0  0  0  0
   -6.5817   -0.7355    4.1265 C   0  0  0  0  0  0  0  0  0  0  0  0
   -3.6146   -4.6500    8.4402 C   0  0  0  0  0  0  0  0  0  0  0  0
   -5.7250    0.4837    3.7925 C   0  0  0  0  0  0  0  0  0  0  0  0
   -3.4242    0.2867    4.6647 N   0  0  0  0  0  0  0  0  0  0  0  0
   -2.4945   -0.8186    2.9827 N   0  0  0  0  0  0  0  0  0  0  0  0
   -4.3244    0.1458    3.6131 N   0  0  0  0  0  0  0  0  0  0  0  0
   -1.2504   -0.7231   -0.2404 N   0  0  0  0  0  0  0  0  0  0  0  0
   -4.2947   -0.8270    1.4581 O   0  0  0  0  0  0  0  0  0  0  0  0
   -0.6775    0.8012    1.3427 O   0  0  0  0  0  0  0  0  0  0  0  0
   -4.4919   -3.5432    8.6090 O   0  0  0  0  0  0  0  0  0  0  0  0
   -1.7151   -1.3849   -3.2454 F   0  0  0  0  0  0  0  0  0  0  0  0
   -7.0447   -0.3209    6.7891 H   0  0  0  0  0  0  0  0  0  0  0  0
   -4.9698   -2.9190    4.0790 H   0  0  0  0  0  0  0  0  0  0  0  0
   -6.0740   -1.5638    8.7168 H   0  0  0  0  0  0  0  0  0  0  0  0
   -4.0002   -4.1563    5.9748 H   0  0  0  0  0  0  0  0  0  0  0  0
   -0.8915    0.4292    5.6313 H   0  0  0  0  0  0  0  0  0  0  0  0
   -1.1357   -1.3148    5.6524 H   0  0  0  0  0  0  0  0  0  0  0  0
    0.3506    0.2882    3.4997 H   0  0  0  0  0  0  0  0  0  0  0  0
    1.0154   -0.9541    4.5687 H   0  0  0  0  0  0  0  0  0  0  0  0
    0.6226   -1.9021    2.3018 H   0  0  0  0  0  0  0  0  0  0  0  0
   -0.4328   -2.6746    3.4839 H   0  0  0  0  0  0  0  0  0  0  0  0
   -7.3682   -2.5254    3.0527 H   0  0  0  0  0  0  0  0  0  0  0  0
   -7.0312   -1.0913    1.9697 H   0  0  0  0  0  0  0  0  0  0  0  0
   -8.4355    0.3707    3.5227 H   0  0  0  0  0  0  0  0  0  0  0  0
   -8.7374   -1.0764    4.5985 H   0  0  0  0  0  0  0  0  0  0  0  0
   -3.1382   -1.7769   -0.3039 H   0  0  0  0  0  0  0  0  0  0  0  0
   -1.7541   -2.6730   -1.0496 H   0  0  0  0  0  0  0  0  0  0  0  0
   -0.2912    0.2661   -1.9056 H   0  0  0  0  0  0  0  0  0  0  0  0
   -1.6461    1.1770   -1.1662 H   0  0  0  0  0  0  0  0  0  0  0  0
   -1.8509   -2.2607    1.6462 H   0  0  0  0  0  0  0  0  0  0  0  0
   -3.2195   -0.3785   -2.3602 H   0  0  0  0  0  0  0  0  0  0  0  0
   -3.3553   -4.9833    9.4462 H   0  0  0  0  0  0  0  0  0  0  0  0
   -2.6996   -4.3595    7.9081 H   0  0  0  0  0  0  0  0  0  0  0  0
   -4.1032   -5.4713    7.9008 H   0  0  0  0  0  0  0  0  0  0  0  0
   -5.7581    1.2154    4.6030 H   0  0  0  0  0  0  0  0  0  0  0  0
   -6.0845    0.9596    2.8753 H   0  0  0  0  0  0  0  0  0  0  0  0
  1  3  1  0  0  0  0
  1  5  2  0  0  0  0
  1 30  1  0  0  0  0
  2  4  2  0  0  0  0
  2  5  1  0  0  0  0
  2 31  1  0  0  0  0
  3  6  2  0  0  0  0
  3 32  1  0  0  0  0
  4  6  1  0  0  0  0
  4 33  1  0  0  0  0
  5 19  1  0  0  0  0
  6 28  1  0  0  0  0
  7 10  1  0  0  0  0
  7 22  2  0  0  0  0
  7 23  1  0  0  0  0
  8 23  1  0  0  0  0
  8 24  1  0  0  0  0
  8 26  2  0  0  0  0
  9 17  1  0  0  0  0
  9 25  1  0  0  0  0
  9 27  2  0  0  0  0
 10 11  1  0  0  0  0
 10 34  1  0  0  0  0
 10 35  1  0  0  0  0
 11 12  1  0  0  0  0
 11 36  1  0  0  0  0
 11 37  1  0  0  0  0
 12 17  1  0  0  0  0
 12 38  1  0  0  0  0
 12 39  1  0  0  0  0
 13 14  1  0  0  0  0
 13 19  1  0  0  0  0
 13 40  1  0  0  0  0
 13 41  1  0  0  0  0
 14 19  1  0  0  0  0
 14 42  1  0  0  0  0
 14 43  1  0  0  0  0
 15 18  1  0  0  0  0
 15 25  1  0  0  0  0
 15 44  1  0  0  0  0
 15 45  1  0  0  0  0
 16 18  1  0  0  0  0
 16 25  1  0  0  0  0
 16 46  1  0  0  0  0
 16 47  1  0  0  0  0
 17 23  1  0  0  0  0
 17 48  1  0  0  0  0
 18 29  1  0  0  0  0
 18 49  1  0  0  0  0
 19 21  1  0  0  0  0
 20 28  1  0  0  0  0
 20 50  1  0  0  0  0
 20 51  1  0  0  0  0
 20 52  1  0  0  0  0
 21 24  1  0  0  0  0
 21 53  1  0  0  0  0
 21 54  1  0  0  0  0
 22 24  1  0  0  0  0
M  END
$$$$
