25   
torsion grid (-165,)
C       -5.2750746098    0.9517324967   -3.5471676863
C       -3.9159764067    1.1511577064   -3.2740068624
C       -5.8862615992   -0.2761316504   -3.3074051939
C       -3.1468189218    0.1051282935   -2.7503331674
C       -3.7691396802   -1.1347007782   -2.5098425070
C       -5.1195357661   -1.3244297608   -2.7838587256
C        1.4416907879    2.6947292166   -0.9202388661
C        0.6745984568    1.6635239979   -0.0981836939
C        0.3275529579    1.2117378181   -2.3100224510
C       -1.1460125368    1.3942770078   -2.6948992131
O        0.9043635264    2.5174397563   -2.2398104126
O        0.4905081880    0.6043512028   -1.0425125701
O       -1.8259520876    0.1711660736   -2.4342415921
F       -3.0295718905   -2.1395017157   -2.0085689578
Cl      -5.8455855457   -2.8806321251   -2.4697513037
H       -5.8615936897    1.7705275716   -3.9533714947
H       -3.4669404053    2.1175392163   -3.4699202338
H       -6.9384256458   -0.4347580799   -3.5178346662
H        1.2647068436    3.7283568280   -0.6132944406
H        2.5190403056    2.4885124596   -0.9236385877
H        1.2333972340    1.2645878877    0.7502824533
H       -0.2914963343    2.0530224857    0.2498580344
H        0.8557111617    0.5876471404   -3.0391286503
H       -1.2146721879    1.6717264942   -3.7541412360
H       -1.5746442253    2.2031734205   -2.0904305699
25   
torsion grid (-150,)
C       -5.0991900993    0.8905852933   -3.4925955182
C       -3.7312645568    1.1245977789   -3.3029228529
C       -5.6928644915   -0.2969349930   -3.0732998473
C       -2.9353726515    0.1542020581   -2.6825275628
C       -3.5400879957   -1.0450597627   -2.2597971891
C       -4.8993669561   -1.2689737802   -2.4515221795
C        1.1599499416    2.8150767386   -0.7833356790
C        0.6292086929    1.4850021232   -0.2257575026
C        0.5536725529    1.3571725325   -2.4782820498
C       -0.9497586112    1.4585129343   -2.8336546352
O        1.0338489525    2.6746491780   -2.2112242364
O        0.8013516759    0.5888055287   -1.3269709329
O       -1.6022282993    0.2584793434   -2.4322561711
F       -2.7752845728   -1.9754866502   -1.6621691670
Cl      -5.6034134603   -2.7712488490   -1.9087648593
H       -5.7064968601    1.6501907236   -3.9759036150
H       -3.2967147039    2.0582044559   -3.6395481320
H       -6.7517461728   -0.4818427986   -3.2185478606
H        0.5800130990    3.6801946196   -0.4472672089
H        2.2167196252    2.9710143522   -0.5436375948
H        1.2070389362    1.0991491519    0.6155357530
H       -0.4287578452    1.5472042004    0.0590247982
H        1.1291178801    0.9189590961   -3.2974442912
H       -1.0571374379    1.6260383480   -3.9124399546
H       -1.3866316476    2.3160571508   -2.3074918446
25   
torsion grid (-135,)
C       -4.1434701221    0.0711383740   -4.7306064528
C       -2.9606968043    0.5152210486   -4.1256732420
C       -4.1510587052   -1.0377102906   -5.5725819307
C       -1.7572780337   -0.1584806904   -4.3659854074
C       -1.7701363949   -1.2804230058   -5.2166054641
C       -2.9491688590   -1.7153737265   -5.8123303245
C        1.2390765271    0.3533209752   -0.4146945943
C        1.5467935215   -0.5751775925   -1.6085633224
C        0.9733270754    1.4439239506   -2.4276833250
C       -0.4908107229    1.2546511785   -2.9273728113
O        0.9626117209    1.6335268345   -1.0163850656
O        1.8012419192    0.3394285999   -2.6802342139
O       -0.5434105629    0.1651196307   -3.8437523043
F       -0.6143475939   -1.9307716777   -5.4403554950
Cl      -2.9141574624   -3.1136902220   -6.8565065396
H       -5.0708605928    0.6025512021   -4.5383848246
H       -2.9850668947    1.3811767330   -3.4751453745
H       -5.0650644669   -1.3844324491   -6.0425933008
H        0.3732168649    0.0148321026    0.1643738107
H        2.0945980732    0.4767446586    0.2554306338
H        2.4414739444   -1.1841708685   -1.4693430108
H        0.6987097062   -1.2236423474   -1.8576428661
H        1.4346072020    2.3190771436   -2.8905799456
H       -0.8345977713    2.1787424521   -3.4083528923
H       -1.1389220300    1.0531133235   -2.0662993608
25   
torsion grid (-120,)
C       -4.0527931231    0.2223090684   -4.9859580290
C       -2.9057234189    0.6672142700   -4.3164239316
C       -4.0447733154   -0.9558982419   -5.7280285634
C       -1.7224908006   -0.0771423358   -4.3894791036
C       -1.7194344655   -1.2692705727   -5.1385078676
C       -2.8630971566   -1.7041523835   -5.7992626561
C        1.4587420829    0.2933976905   -0.4720215514
C        1.6890238756   -0.4919251991   -1.7666237016
C        0.9108816157    1.5482396141   -2.3426258582
C       -0.5119636002    1.3964092795   -2.9610044606
O        0.8079147092    1.4993682792   -0.9155672040
O        1.8208503763    0.5562598330   -2.7364550009
O       -0.5418635835    0.2407419112   -3.7947238902
F       -0.5832070905   -1.9878560344   -5.1983283380
Cl      -2.8093347183   -3.1909912004   -6.7122356010
H       -4.9650833098    0.8082241636   -4.9239400114
H       -2.9412214777    1.5874476517   -3.7457306523
H       -4.9315741106   -1.3031213701   -6.2472380715
H        0.8064236636   -0.2233678404    0.2374903242
H        2.4024977054    0.5547378269    0.0199688635
H        2.6123124859   -1.0732135074   -1.7744807417
H        0.8397759677   -1.1372566235   -2.0195541996
H        1.3363434651    2.5156165786   -2.6267823466
H       -0.7509754598    2.2865351245   -3.5566693111
H       -1.2423161244    1.3070814468   -2.1495001463
25   
torsion grid (-105,)
C       -3.9597741205    0.2560344362   -5.1286814572
C       -2.8426177265    0.7181529894   -4.4215324251
C       -3.9539122285   -0.9879421806   -5.7546443327
C       -1.6927462999   -0.0753000072   -4.3364317952
C       -1.6926947295   -1.3331474757   -4.9681848104
C       -2.8057963663   -1.7851813792   -5.6682245696
C        1.4879133001    0.1541347967   -0.4904516193
C        1.8166377712   -0.4431961238   -1.8585682769
C        0.8350159337    1.5734748741   -2.2000445836
C       -0.5244107782    1.4613090807   -2.9350205969
O        0.6443301791    1.2744137151   -0.8130441349
O        1.8381363273    0.7240200870   -2.6951421456
O       -0.5415534508    0.2549134214   -3.6942182433
F       -0.5887818618   -2.0985131650   -4.8748383984
Cl      -2.7565790699   -3.3545007385   -6.4309173259
H       -4.8462957126    0.8803879517   -5.1893929030
H       -2.8740955347    1.6905070838   -3.9445819008
H       -4.8174130731   -1.3489650942   -6.3028821611
H        0.9323000651   -0.5245873692    0.1617045635
H        2.3894543725    0.5069847039    0.0249441137
H        2.8008675857   -0.9114032126   -1.9137471639
H        1.0462384024   -1.1417988692   -2.2028225644
H        1.2026125621    2.6027274430   -2.2888492367
H       -0.6477871590    2.3158275509   -3.6130280791
H       -1.3284493026    1.4728364100   -2.1914377556
25   
torsion grid (-90,)
C       -4.0291270210    0.3758771705   -5.2194722378
C       -2.9193474433    0.8191901607   -4.4891658607
C       -4.0728547002   -0.9078460801   -5.7577118758
C       -1.8283831614   -0.0345657567   -4.2908867568
C       -1.8781814440   -1.3315870377   -4.8345812710
C       -2.9832314111   -1.7647685235   -5.5585743743
C        1.4439196166    0.0231896239   -0.6610510032
C        1.8436311143   -0.3671253795   -2.0841188058
C        0.7092346351    1.6050029561   -2.1825814689
C       -0.6161523746    1.5338631496   -2.9588738532
O        0.5128157742    1.1004239534   -0.8600085627
O        1.7667905092    0.8912604218   -2.7753389973
O       -0.6906280406    0.2707355111   -3.6148390575
F       -0.8288356472   -2.1523635541   -4.6338065833
Cl      -2.9974103678   -3.3838817827   -6.2103192888
H       -4.8702903216    1.0464681161   -5.3683261356
H       -2.9106086098    1.8231413336   -4.0816344085
H       -4.9308271590   -1.2543763695   -6.3236669642
H        0.9376190151   -0.7772625121   -0.1157753160
H        2.3038417971    0.3797218268   -0.0806243346
H        2.8692550353   -0.7308582448   -2.1699060576
H        1.1469551679   -1.0855889139   -2.5270592708
H        1.0144411097    2.6579221522   -2.1185627120
H       -0.6438519115    2.3343028785   -3.7098151830
H       -1.4438685284    1.6677813204   -2.2535397447
25   
torsion grid (-75,)
C       -3.9779329809    0.4102289457   -5.3090558751
C       -2.8913737979    0.8507380164   -4.5431539692
C       -4.0577904326   -0.9052247892   -5.7595862441
C       -1.8616983364   -0.0394626709   -4.2184930695
C       -1.9463071944   -1.3676148870   -4.6753153850
C       -3.0280293509   -1.7973153140   -5.4356056837
C        1.4296866233   -0.1048776628   -0.7673570445
C        1.9194320987   -0.2770342938   -2.2050086599
C        0.6410402189    1.6143193756   -2.1012171686
C       -0.6340537235    1.5666503339   -2.9428512140
O        0.4294529901    0.9208389130   -0.8740350745
O        1.7619786911    1.0478281205   -2.7428111016
O       -0.7537743703    0.2572424698   -3.4923159189
F       -0.9523828911   -2.2204267108   -4.3571324979
Cl      -3.0878022246   -3.4554500621   -5.9771750883
H       -4.7722183420    1.1084040214   -5.5561386986
H       -2.8524811619    1.8800230204   -4.2065403720
H       -4.8981316956   -1.2492705915   -6.3528510194
H        0.9616973402   -1.0032545719   -0.3576362199
H        2.2338561896    0.2310842944   -0.1008734816
H        2.9759714070   -0.5419632499   -2.2795435567
H        1.3066932697   -0.9891264194   -2.7654185521
H        0.8737623773    2.6679386794   -1.8912202337
H       -0.5630552193    2.3047706322   -3.7522805114
H       -1.4899978198    1.8075377249   -2.3012923465
25   
torsion grid (-60,)
C       -3.8032783449    0.3107912679   -5.2772819661
C       -2.7488350641    0.7929589472   -4.4916446212
C       -3.9090274649   -1.0414003747   -5.5940860390
C       -1.7785466631   -0.0926868612   -4.0113140797
C       -1.8890734928   -1.4574068314   -4.3335389812
C       -2.9383109275   -1.9293648491   -5.1139218420
C        1.2786224150   -0.3506148584   -1.1273637868
C        2.1153178169   -0.1093672958   -2.4038345625
C        0.7416387464    1.6976542489   -2.0272268156
C       -0.5264332553    1.6060808854   -2.8775777109
O        0.6561272655    0.9167805604   -0.8534697738
O        1.8893303594    1.2723167806   -2.7333805995
O       -0.7090437133    0.2391001921   -3.2427750286
F       -0.9490607762   -2.3035314315   -3.8662559992
Cl      -3.0301434057   -3.6318304150   -5.4855965496
H       -4.5521865121    1.0054547705   -5.6459241499
H       -2.6895704810    1.8496863002   -4.2590790915
H       -4.7247414906   -1.4169668259   -6.2024136720
H        0.5155159852   -1.1171883600   -1.2873817463
H        1.8886565757   -0.6103944953   -0.2583648350
H        3.1889119411   -0.2362368088   -2.2422825605
H        1.7858134648   -0.7506767025   -3.2259411598
H        0.8855831119    2.7448379503   -1.7353250603
H       -0.4068950713    2.2302900634   -3.7721121426
H       -1.3817946507    1.9636456124   -2.2903443120
25   
torsion grid (-45,)
C        0.3978076933   -1.8954034125   -5.5273340170
C        0.0312161632   -1.5096655807   -4.2356308081
C       -0.0378783957   -1.1688762365   -6.6374211776
C       -0.7944805192   -0.3998650011   -4.0359119517
C       -1.2543920156    0.3077670511   -5.1552783961
C       -0.8654200997   -0.0587730123   -6.4428109635
C        2.5810639953    0.9713084976   -2.6591487957
C        2.0660890114    1.4467642475   -4.0205474397
C        0.4655919352    1.7263164387   -2.3578113759
C       -0.9719891645    1.2303242827   -2.2578490850
O        1.3742737219    0.7354867091   -1.9281788661
O        0.8128862695    2.0696745545   -3.7024442459
O       -1.1779499412   -0.0973011546   -2.7561847405
F       -2.0747375927    1.3630083582   -4.9775644092
Cl      -1.4349684269    0.8733481765   -7.8057845209
H        1.0383307026   -2.7606326743   -5.6713875096
H        0.3785287648   -2.0461281830   -3.3585387549
H        0.2505192892   -1.4498582393   -7.6448894128
H        3.1413297074    0.0354457991   -2.6992447203
H        3.1849719017    1.7427124210   -2.1611199705
H        2.7195383430    2.1841466440   -4.4950430177
H        1.8927530623    0.6107525578   -4.7060866588
H        0.5602691788    2.6367472918   -1.7399787107
H       -1.6208810434    1.9530386459   -2.7602668829
H       -1.2522051722    1.1699602260   -1.2038967960
25   
torsion grid (-30,)
C        0.4612496654   -1.8965395122   -5.4185869402
C        0.0469463948   -1.5002478615   -4.1457639797
C        0.0524744003   -1.1905610710   -6.5530760715
C       -0.7996689328   -0.3990598417   -3.9878789037
C       -1.2332208187    0.2864032469   -5.1312373139
C       -0.7970153445   -0.0916350913   -6.4017283626
C        2.5313344994    0.8547700503   -2.8087307918
C        2.0108924065    1.5849229564   -4.0475815196
C        0.4838234187    1.6894907150   -2.2903749219
C       -0.9896599619    1.2711456683   -2.2732334788
O        1.3316712460    0.5829853554   -2.0790468968
O        0.8323313316    2.2468906763   -3.5680547277
O       -1.2210256241   -0.0694132452   -2.7250132287
F       -2.0792833858    1.3281591897   -4.9985323599
Cl      -1.3376082490    0.8121972652   -7.7949715534
H        1.1190061639   -2.7536273463   -5.5301536231
H        0.3770302921   -2.0156419472   -3.2500424537
H        0.3790928704   -1.4802654712   -7.5463247027
H        3.0157063086   -0.0988710601   -3.0263487326
H        3.2060154920    1.4873103318   -2.2152464054
H        2.7081500474    2.3342387043   -4.4325226668
H        1.7415540319    0.8863834966   -4.8472640594
H        0.6500237602    2.4699509657   -1.5294223313
H       -1.5600028249    2.0022823341   -2.8510062724
H       -1.3538543193    1.2679250702   -1.2432999717
25   
torsion grid (-15,)
C        0.5016963297   -1.9223433689   -5.3660782634
C        0.0764641434   -1.4942059274   -4.1081292248
C        0.0886782729   -1.2574976415   -6.5244538118
C       -0.7831802993   -0.3976259629   -3.9864702532
C       -1.2217222045    0.2443327926   -5.1535175461
C       -0.7771901335   -0.1679484875   -6.4116328848
C        2.5063544477    0.7896341030   -2.8965788749
C        1.9925366559    1.7385517132   -3.9736985835
C        0.5230902652    1.6862334167   -2.1737059688
C       -0.9723573225    1.3251848871   -2.3330024087
O        1.3270861502    0.5246484969   -2.1300718329
O        0.9800489213    2.4790576862   -3.2801557335
O       -1.2157421791   -0.0287276115   -2.7388448919
F       -2.0862738093    1.2766036626   -5.0592339942
Cl      -1.3297523570    0.6810739673   -7.8341651037
H        1.1707675262   -2.7739569736   -5.4487565942
H        0.4088286842   -1.9775451414   -3.1958326854
H        0.4238576045   -1.5740280351   -7.5066062367
H        2.8738874242   -0.1629387978   -3.2837335331
H        3.2747860263    1.2609556790   -2.2690394654
H        2.7457491156    2.4415764756   -4.3373914777
H        1.5585439625    1.1909415354   -4.8188382173
H        0.6606947159    2.2984976673   -1.2704772751
H       -1.4253779395    2.0447447076   -3.0177794554
H       -1.4702899552    1.3986267838   -1.3636927094
25   
torsion grid (0,)
C        0.4191215819   -2.1243499849   -5.2587714220
C       -0.0245010064   -1.6215936777   -4.0364136112
C        0.1782369922   -1.4296252011   -6.4485061444
C       -0.7334740814   -0.4158368018   -3.9770236627
C       -1.0007139868    0.2586867550   -5.1771080806
C       -0.5340126416   -0.2308870730   -6.3998556286
C        2.3641338958    0.8250578549   -3.2425586003
C        1.8028950944    2.0866486802   -3.8981138139
C        0.5736188747    1.6453162094   -2.0191038292
C       -0.9274280265    1.3447356645   -2.3278187947
O        1.3906267139    0.5051879152   -2.2362499518
O        1.0798357298    2.7000322359   -2.8243494455
O       -1.2019930193    0.0049273194   -2.7638796474
F       -1.7175030022    1.4049449820   -5.1539451273
Cl      -0.8647593373    0.6694220417   -7.8598307682
H        0.9713828568   -3.0590496361   -5.2884124184
H        0.1819882624   -2.1301656657   -3.1008509104
H        0.5308664233   -1.8048141096   -7.4034484791
H        2.4391071713   -0.0212919441   -3.9302129602
H        3.3352937833    1.0085131184   -2.7677014322
H        2.5687044630    2.7889529219   -4.2327093769
H        1.1352469884    1.8489263669   -4.7349296129
H        0.6741782678    1.9771016503   -0.9792968556
H       -1.2843609594    2.0811231361   -3.0506190341
H       -1.5124686957    1.4443115783   -1.4119054755
25   
torsion grid (15,)
C        0.3439512643   -2.2556157489   -5.1753080753
C       -0.1139942597   -1.7081362691   -3.9784065657
C        0.2041826981   -1.5601311372   -6.3810510199
C       -0.7359962455   -0.4540821801   -3.9588852599
C       -0.9076596458    0.2203882340   -5.1762694799
C       -0.4240276138   -0.3148477941   -6.3733052646
C        2.2622237689    0.9099982905   -3.4787479605
C        1.7186487500    2.3103634786   -3.7819349658
C        0.6328017043    1.5319127737   -1.9540922393
C       -0.8655728668    1.3484885207   -2.3549959666
O        1.4417610757    0.4500581278   -2.3899272948
O        1.1656212951    2.7148350462   -2.5217005292
O       -1.2137981883    0.0178229013   -2.7674963462
F       -1.5520824630    1.4108162831   -5.1997359751
Cl      -0.6325121742    0.5882506275   -7.8544423507
H        0.8316822054   -3.2259487150   -5.1718744924
H        0.0219188675   -2.2176769779   -3.0306107472
H        0.5711882936   -1.9700204306   -7.3160779165
H        2.1594729633    0.2195925944   -4.3208392945
H        3.3056570061    0.9368294784   -3.1467193760
H        2.4858770354    3.0342898002   -4.0609117683
H        0.9428544132    2.2860073551   -4.5574798187
H        0.7297761724    1.6244563191   -0.8682982339
H       -1.1158043894    2.0781017999   -3.1271431639
H       -1.4998970611    1.5381923988   -1.4875244251
25   
torsion grid (30,)
C        0.1810805590   -2.3808505912   -5.1458096529
C       -0.2550463188   -1.7760509828   -3.9690704996
C        0.1583330765   -1.6861206807   -6.3594668709
C       -0.7387702590   -0.4623616007   -3.9759261337
C       -0.7963057601    0.2144989576   -5.2031289223
C       -0.3319853381   -0.3807554529   -6.3790549841
C        2.2834563645    1.1652678827   -3.6199508047
C        1.7635366563    2.6081453412   -3.5793230067
C        0.6977505576    1.4478517416   -1.9549032241
C       -0.7877189266    1.3741817759   -2.4024372931
O        1.5021050970    0.4859507168   -2.6218188007
O        1.2342488276    2.7230560192   -2.2485088611
O       -1.2044655682    0.0585664172   -2.7990919374
F       -1.3090849316    1.4682681441   -5.2613599694
Cl      -0.3891586332    0.5269546467   -7.8718359523
H        0.5609098499   -3.3979405721   -5.1195905369
H       -0.2081606029   -2.2908689264   -3.0152321365
H        0.5104688794   -2.1411823552   -7.2791132136
H        2.1261823334    0.6848375072   -4.5903335595
H        3.3404282277    1.0978537019   -3.3421160028
H        2.5417097389    3.3640179478   -3.6951905875
H        0.9782923247    2.7760934027   -4.3266104065
H        0.7913805123    1.2846723576   -0.8774363660
H       -0.9638026244    2.0985465423   -3.1982120078
H       -1.4328319582    1.6307088519   -1.5601507000
25   
torsion grid (45,)
C       -0.2405675720   -2.6285335965   -5.0889079313
C       -0.5737499755   -1.9362581722   -3.9261488239
C       -0.0145945514   -1.9473998375   -6.2875503910
C       -0.7043483241   -0.5415560920   -3.9293575307
C       -0.5087319614    0.1311964921   -5.1443822622
C       -0.1471921452   -0.5587829327   -6.3019830565
C        2.3493852961    1.7146919170   -3.7774643078
C        1.7499356991    3.0546604413   -3.3392213929
C        0.8421927018    1.4256317416   -2.0393302683
C       -0.6622587054    1.3495622596   -2.3663099703
O        1.6202083494    0.7409513317   -3.0116537705
O        1.2676899737    2.7748139218   -2.0145674233
O       -1.0898734075    0.0340854268   -2.7512052101
F       -0.6434190841    1.4810063728   -5.2091697779
Cl       0.1339037108    0.3451108124   -7.7729474914
H       -0.1418210917   -3.7096895482   -5.0607697110
H       -0.7299221315   -2.4539350867   -2.9850019932
H        0.2594000016   -2.4720048872   -7.1965030201
H        2.2065444985    1.5123479130   -4.8426182224
H        3.4132380973    1.6373059217   -3.5275598900
H        2.4810565073    3.8614221764   -3.2638069088
H        0.9286707842    3.3634807279   -3.9959270403
H        1.0487500492    0.9869436606   -1.0575018401
H       -0.9164807881    2.0871725006   -3.1272380345
H       -1.2333288265    1.5707944230   -1.4625683766
25   
torsion grid (60,)
C       -0.0784469100   -2.7524046050   -4.9363430899
C       -0.4834877979   -1.9497175861   -3.8699430893
C        0.0591219531   -2.2192534941   -6.2199741983
C       -0.7730203393   -0.5955467568   -4.0653453421
C       -0.6681546760   -0.0761058321   -5.3634509583
C       -0.2369743476   -0.8706353357   -6.4254719422
C        2.1694623005    1.8470559798   -4.0023225904
C        2.3146775823    2.9507929355   -2.9548465808
C        0.7849043777    1.3553191547   -2.2613681050
C       -0.6766254421    1.4244688414   -2.7157863903
O        1.6353735614    0.7638739393   -3.2286906064
O        1.2370379911    2.6893360701   -2.0393137247
O       -1.2232908158    0.1231836828   -2.9892176898
F       -0.9765643906    1.2233095426   -5.5956276512
Cl      -0.0846938654   -0.1587418312   -8.0149103039
H        0.1465014902   -3.8010909212   -4.7658787569
H       -0.5736670365   -2.3477796319   -2.8641493941
H        0.3870920007   -2.8297272412   -7.0545594484
H        1.4788306729    2.1297911736   -4.8065007413
H        3.1156746799    1.5165856814   -4.4339830786
H        3.2717373468    2.8807500060   -2.4243723969
H        2.1916901963    3.9580433851   -3.3608718093
H        0.8797893025    0.7596937476   -1.3463639170
H       -0.7697543177    2.0885737841   -3.5762709362
H       -1.2839103812    1.8217256633   -1.9001938089
25   
torsion grid (75,)
C       -0.2483952902   -2.8972171113   -4.8646268858
C       -0.6314876086   -2.0335314616   -3.8375615384
C       -0.0140178665   -2.4129587245   -6.1530787535
C       -0.8022874803   -0.6667698620   -4.0809337285
C       -0.5931056279   -0.1921721764   -5.3835111194
C       -0.1861443137   -1.0502538510   -6.4041576355
C        2.1545983387    2.2543202284   -4.0819459663
C        2.3515840161    3.0259351305   -2.7800890898
C        0.8647408807    1.2764635620   -2.4702919026
C       -0.6232186541    1.3932959456   -2.8001763983
O        1.6668442234    0.9933826768   -3.6072547886
O        1.2840422628    2.5399820940   -1.9515884111
O       -1.2348910873    0.1132137335   -3.0392757000
F       -0.7779647330    1.1199754392   -5.6593654921
Cl       0.0971269005   -0.3989295050   -8.0012121359
H       -0.1191633741   -3.9555886281   -4.6584657104
H       -0.8027058558   -2.3949308136   -2.8282820772
H        0.2968738028   -3.0713172869   -6.9572723931
H        1.4178041936    2.7354287223   -4.7375084429
H        3.0751712612    2.0703684164   -4.6385386332
H        3.3191744894    2.7948571736   -2.3178337889
H        2.2412423948    4.1078915069   -2.8857852782
H        1.0398721488    0.4765955761   -1.7410322508
H       -0.7735168490    2.0764306923   -3.6377564155
H       -1.1428798907    1.7851904782   -1.9239547038
25   
torsion grid (90,)
C       -5.2439925462    0.6948669496   -3.1693664819
C       -3.9879761598    1.0056873424   -2.6335661641
C       -5.5317728713   -0.5843744778   -3.6379524302
C       -2.9946380046    0.0222438434   -2.5624795634
C       -3.2892624378   -1.2698065766   -3.0363672997
C       -4.5395109363   -1.5698684686   -3.5666197943
C        2.1218001657    2.2027347695   -1.4893412988
C        1.5673829113    2.9558043015   -0.2644619258
C        0.0469977587    1.4319114149   -1.1047179513
C       -1.3933193415    1.4927538181   -1.5818231720
O        0.9406551861    1.7481053106   -2.1524140927
O        0.2391195341    2.4302802914   -0.1023561015
O       -1.7414111219    0.1946038358   -2.0632129629
F       -2.3344746417   -2.2151532696   -2.9650207247
Cl      -4.8571087024   -3.1872195418   -4.1410353406
H       -6.0064417646    1.4665512766   -3.2196490703
H       -3.7922042839    2.0094821959   -2.2759150870
H       -6.5030923256   -0.8296585102   -4.0538087071
H        2.6797420150    2.8341451417   -2.1827301398
H        2.7453369914    1.3493259046   -1.1898600126
H        2.1543934183    2.7700529780    0.6409405411
H        1.4933098199    4.0345620322   -0.4341475201
H        0.2753697341    0.4360370507   -0.6926664596
H       -1.4817573877    2.2463477206   -2.3717811580
H       -2.0307286826    1.7680747505   -0.7342344909
25   
torsion grid (105,)
C       -5.2435095041    0.7192810940   -3.2166418366
C       -3.9750107349    1.0270696057   -2.7092164284
C       -5.5764030605   -0.5801427372   -3.5901880184
C       -3.0151417892    0.0178411143   -2.5707284051
C       -3.3554850971   -1.2944777163   -2.9489504182
C       -4.6176533968   -1.5913286439   -3.4517698047
C        2.1291335879    2.3321826034   -1.4552795592
C        1.5472068042    2.8372423895   -0.1210190372
C        0.0853913984    1.4270590839   -1.2263393427
C       -1.3579886043    1.5013463025   -1.7061249186
O        0.9642615020    1.9636408354   -2.1959220904
O        0.2426780343    2.2377751994   -0.0602385098
O       -1.7535823484    0.1826645712   -2.0902503699
F       -2.4313706515   -2.2631661312   -2.8133089078
Cl      -4.9917724833   -3.2343638387   -3.9071116138
H       -5.9805062659    1.5101435588   -3.3201230973
H       -3.7440990470    2.0469835340   -2.4259826404
H       -6.5578912066   -0.8218676550   -3.9836120528
H        2.6673407803    3.0938556175   -2.0217677878
H        2.7790263646    1.4590395235   -1.3066982092
H        2.1442537455    2.5229300707    0.7412709092
H        1.4283583520    3.9253190111   -0.1028968805
H        0.3570923929    0.3853481197   -0.9950126642
H       -1.4256268544    2.1938046673   -2.5517766753
H       -1.9847873710    1.8597853524   -0.8828728153
25   
torsion grid (120,)
C       -5.2209173780    0.7029083328   -3.2850743297
C       -3.9428312578    1.0238814332   -2.8109282023
C       -5.5841624218   -0.6158715630   -3.5451335771
C       -3.0041459546    0.0093422824   -2.5903912329
C       -3.3758922163   -1.3222625782   -2.8544816212
C       -4.6470291312   -1.6329233952   -3.3252449098
C        2.1247230531    2.4931910433   -1.4229196892
C        1.5305680596    2.6999577773   -0.0142962983
C        0.1311041061    1.4574449442   -1.3662517329
C       -1.3111335499    1.5234124234   -1.8576075883
O        0.9777775219    2.2007894940   -2.2234676398
O        0.2455433807    2.0613732937   -0.0785689897
O       -1.7355418797    0.1860384844   -2.1330154727
F       -2.4719511666   -2.2960648396   -2.6412609942
Cl      -5.0596448340   -3.2998976543   -3.6379968631
H       -5.9410022033    1.4984223668   -3.4523683415
H       -3.6879866244    2.0587862762   -2.6168153297
H       -6.5730652283   -0.8682421851   -3.9124099077
H        2.6111381673    3.3795345194   -1.8335340122
H        2.8267361085    1.6485732757   -1.4426385503
H        2.1433254249    2.2380062185    0.7670307251
H        1.3762814856    3.7569157443    0.2243333270
H        0.4644753496    0.4091586504   -1.3155363021
H       -1.3568356969    2.1361811419   -2.7640227702
H       -1.9351964509    1.9700437002   -1.0769477188
25   
torsion grid (135,)
C       -5.1884948271    0.7010674510   -3.3418071737
C       -3.9015703864    1.0291321341   -2.8973714229
C       -5.5826616343   -0.6255582360   -3.4951127139
C       -2.9859878064    0.0135572070   -2.5985024319
C       -3.3883616338   -1.3260398822   -2.7556915492
C       -4.6682338073   -1.6434700030   -3.1974446254
C        2.0949828472    2.6444268837   -1.3322476752
C        1.4934436346    2.5486268774    0.0851728354
C        0.1778931613    1.4784108446   -1.4793088686
C       -1.2588613473    1.5410142385   -1.9837450865
O        0.9719770639    2.4138592076   -2.1860582285
O        0.2561207006    1.8443983683   -0.1046717334
O       -1.7109074132    0.1968556176   -2.1623110425
F       -2.5054805280   -2.3003937286   -2.4695803004
Cl      -5.1202381084   -3.3199676891   -3.3762354363
H       -5.8908872613    1.4971182559   -3.5705071039
H       -3.6219719234    2.0700146985   -2.7873474335
H       -6.5786150688   -0.8834093244   -3.8387742556
H        2.5106893530    3.6245272006   -1.5719445316
H        2.8591260900    1.8728065569   -1.4968391565
H        2.1410803787    1.9964180892    0.7743899732
H        1.2664644072    3.5309587532    0.5111623349
H        0.5779537404    0.4610166333   -1.6143410187
H       -1.2779206939    2.0774853227   -2.9385898921
H       -1.8788313207    2.0667233689   -1.2504538233
25   
torsion grid (150,)
C       -5.1247777709    0.6544503180   -3.1765944417
C       -3.7959360680    0.9525745451   -2.8500611272
C       -5.5785703818   -0.6611503816   -3.2227863851
C       -2.8980725189   -0.0819032914   -2.5623836884
C       -3.3609757393   -1.4102303693   -2.6114101275
C       -4.6821602329   -1.6981461699   -2.9366358444
C        2.0079173167    2.8582296196   -1.3030151168
C        1.2550754658    2.5617551520   -0.0104570896
C        0.3894814740    1.2990854759   -1.7374237405
C       -1.0751470753    1.4032674659   -2.1541072929
O        1.0810098772    2.4096794657   -2.2987483927
O        0.5717062567    1.3410490895   -0.3240405999
O       -1.5868467800    0.0729701044   -2.2369524461
F       -2.4959207721   -2.4033088874   -2.3373806148
Cl      -5.2082903756   -3.3618528441   -2.9838500834
H       -5.8126627778    1.4651424257   -3.3979108742
H       -3.4694029387    1.9853024371   -2.8238215286
H       -6.6070219817   -0.8960334633   -3.4750184947
H        2.2071642144    3.9175921739   -1.4762652861
H        2.9437590997    2.2868938331   -1.3636573201
H        1.9002445042    2.3817221951    0.8523402252
H        0.5365238404    3.3581960912    0.2256978468
H        0.8094633412    0.3505081242   -2.0972277517
H       -1.1318592058    1.8916620748   -3.1338111910
H       -1.6287446957    1.9925669621   -1.4142287359
25   
torsion grid (165,)
C       -5.0982512909    0.7356645669   -3.2117568756
C       -3.7531022997    1.0028505079   -2.9280635499
C       -5.6061954216   -0.5591501960   -3.1457698624
C       -2.8936814253   -0.0423502044   -2.5701650789
C       -3.4107898392   -1.3498580121   -2.5052917568
C       -4.7480486042   -1.6064888466   -2.7887832176
C        1.9000932791    2.8981282797   -1.1942829272
C        1.1291755731    2.3216482302   -0.0119816790
C        0.4646087174    1.2554304770   -1.9336190768
C       -1.0038112777    1.3904116894   -2.3182796534
O        1.1124134160    2.4685145759   -2.3124712371
O        0.6577553595    1.0749813631   -0.5370866720
O       -1.5727297758    0.0838619575   -2.2734219626
F       -2.5829282361   -2.3533304513   -2.1636202768
Cl      -5.3425400339   -3.2450109620   -2.6951434298
H       -5.7560277312    1.5542498406   -3.4886034438
H       -3.3843141559    2.0198477762   -2.9888837998
H       -6.6473570006   -0.7701002925   -3.3648655802
H        1.9477094979    3.9891693228   -1.2101980413
H        2.9129201356    2.4798034727   -1.2567023827
H        1.7437976265    2.1093402842    0.8650852127
H        0.2893604454    2.9692997458    0.2748093658
H        0.9109649095    0.3906715571   -2.4399745439
H       -1.0697149861    1.8052465064   -3.3313815806
H       -1.5087005986    2.0634034093   -1.6148231787
25   
torsion grid (180,)
C       -5.0118465476    0.6243055236   -3.2263882019
C       -3.6698432003    0.9428166612   -2.9833990538
C       -5.4948671923   -0.6659978977   -3.0250405985
C       -2.7873148488   -0.0441564718   -2.5290288892
C       -3.2793412376   -1.3476161749   -2.3277176855
C       -4.6136642996   -1.6553701629   -2.5717177599
C        1.8118919654    3.0359550416   -1.0735932850
C        1.0939046701    2.2272450045    0.0002419349
C        0.5517529505    1.3781175716   -2.0643461769
C       -0.9246426489    1.4391608345   -2.4430115673
O        1.0823851550    2.6879399987   -2.2583563966
O        0.7516053166    1.0274818617   -0.7031031556
O       -1.4680719042    0.1365633530   -2.2539432411
F       -2.4305794300   -2.2963327045   -1.8941545002
Cl      -5.1761658474   -3.2866400869   -2.3077388208
H       -5.6868019817    1.3986675913   -3.5788242917
H       -3.3214122356    1.9551145648   -3.1501457001
H       -6.5333316243   -0.9171929034   -3.2122100419
H        1.7469436617    4.1179737489   -0.9399741756
H        2.8628093533    2.7345933963   -1.1700238985
H        1.7219824415    1.9539376096    0.8505087658
H        0.1927077348    2.7423413333    0.3592613092
H        1.0808677126    0.6356541443   -2.6747020124
H       -1.0158722509    1.7574108213   -3.4890639597
H       -1.4321097813    2.1680585184   -1.7993295989
