
  -OEChem-05262117483D

 44 47  0     1  0  0  0  0  0999 V2000
   -2.4718   -1.2662   -2.6347 C   0  0  0  0  0  0  0  0  0  0  0  0
   -4.0392   -0.1951   -1.1467 C   0  0  0  0  0  0  0  0  0  0  0  0
   -3.0983   -2.4936   -2.4300 C   0  0  0  0  0  0  0  0  0  0  0  0
   -4.6854   -1.4162   -0.9336 C   0  0  0  0  0  0  0  0  0  0  0  0
   -2.9300   -0.1025   -1.9957 C   0  0  0  0  0  0  0  0  0  0  0  0
   -4.1967   -2.5450   -1.5777 C   0  0  0  0  0  0  0  0  0  0  0  0
   -0.8767   -1.3973    0.5543 C   0  0  0  0  0  0  0  0  0  0  0  0
   -0.7117    1.1256   -1.9350 C   0  0  0  0  0  0  0  0  0  0  0  0
    0.7543    0.4537    2.7403 C   0  0  0  0  0  0  0  0  0  0  0  0
   -0.6802   -0.0897    2.7075 C   0  0  0  0  0  0  0  0  0  0  0  0
    1.7679   -0.2779    1.8512 C   0  0  0  0  0  0  0  0  0  0  0  0
   -2.5530    1.9779   -3.4918 C   0  0  0  0  0  0  0  0  0  0  0  0
   -2.8968    2.5314   -2.1290 C   0  0  0  0  0  0  0  0  0  0  0  0
   -1.2722    1.1702    0.5089 C   0  0  0  0  0  0  0  0  0  0  0  0
    1.0755    1.0142   -0.2949 C   0  0  0  0  0  0  0  0  0  0  0  0
   -1.3557   -0.1609    1.3169 C   0  0  1  0  0  0  0  0  0  0  0  0
    1.4223   -0.3658    0.3503 C   0  0  2  0  0  0  0  0  0  0  0  0
   -2.2015    1.1887   -2.2514 C   0  0  0  0  0  0  0  0  0  0  0  0
    0.3993   -1.3692    0.0602 N   0  0  0  0  0  0  0  0  0  0  0  0
   -0.3368    1.1681   -0.6103 N   0  0  0  0  0  0  0  0  0  0  0  0
   -1.5927   -2.3887    0.4246 O   0  0  0  0  0  0  0  0  0  0  0  0
    0.1203    1.0402   -2.8413 O   0  0  0  0  0  0  0  0  0  0  0  0
   -4.8117   -3.7378   -1.3696 F   0  0  0  0  0  0  0  0  0  0  0  0
   -1.6090   -1.2029   -3.2924 H   0  0  0  0  0  0  0  0  0  0  0  0
   -4.4113    0.6905   -0.6387 H   0  0  0  0  0  0  0  0  0  0  0  0
   -2.7434   -3.4019   -2.9065 H   0  0  0  0  0  0  0  0  0  0  0  0
   -5.5418   -1.5005   -0.2717 H   0  0  0  0  0  0  0  0  0  0  0  0
    0.7458    1.5176    2.4776 H   0  0  0  0  0  0  0  0  0  0  0  0
    1.1130    0.4156    3.7753 H   0  0  0  0  0  0  0  0  0  0  0  0
   -0.7107   -1.0914    3.1526 H   0  0  0  0  0  0  0  0  0  0  0  0
   -1.3001    0.5484    3.3493 H   0  0  0  0  0  0  0  0  0  0  0  0
    2.7345    0.2339    1.9413 H   0  0  0  0  0  0  0  0  0  0  0  0
    1.9191   -1.2997    2.2195 H   0  0  0  0  0  0  0  0  0  0  0  0
   -3.3661    1.5922   -4.0985 H   0  0  0  0  0  0  0  0  0  0  0  0
   -1.7291    2.4199   -4.0418 H   0  0  0  0  0  0  0  0  0  0  0  0
   -2.3093    3.3667   -1.7578 H   0  0  0  0  0  0  0  0  0  0  0  0
   -3.9406    2.5492   -1.8295 H   0  0  0  0  0  0  0  0  0  0  0  0
   -2.2568    1.4078    0.1212 H   0  0  0  0  0  0  0  0  0  0  0  0
   -0.9977    1.9900    1.1838 H   0  0  0  0  0  0  0  0  0  0  0  0
    1.3840    1.8259    0.3727 H   0  0  0  0  0  0  0  0  0  0  0  0
    1.6148    1.1256   -1.2332 H   0  0  0  0  0  0  0  0  0  0  0  0
   -2.4129   -0.3721    1.4865 H   0  0  0  0  0  0  0  0  0  0  0  0
    2.3215   -0.7309   -0.1524 H   0  0  0  0  0  0  0  0  0  0  0  0
    0.6815   -2.2289   -0.3953 H   0  0  0  0  0  0  0  0  0  0  0  0
  1  3  1  0  0  0  0
  1  5  2  0  0  0  0
  1 24  1  0  0  0  0
  2  4  2  0  0  0  0
  2  5  1  0  0  0  0
  2 25  1  0  0  0  0
  3  6  2  0  0  0  0
  3 26  1  0  0  0  0
  4  6  1  0  0  0  0
  4 27  1  0  0  0  0
  5 18  1  0  0  0  0
  6 23  1  0  0  0  0
  7 16  1  0  0  0  0
  7 19  1  0  0  0  0
  7 21  2  0  0  0  0
  8 18  1  0  0  0  0
  8 20  1  0  0  0  0
  8 22  2  0  0  0  0
  9 10  1  0  0  0  0
  9 11  1  0  0  0  0
  9 28  1  0  0  0  0
  9 29  1  0  0  0  0
 10 16  1  0  0  0  0
 10 30  1  0  0  0  0
 10 31  1  0  0  0  0
 11 17  1  0  0  0  0
 11 32  1  0  0  0  0
 11 33  1  0  0  0  0
 12 13  1  0  0  0  0
 12 18  1  0  0  0  0
 12 34  1  0  0  0  0
 12 35  1  0  0  0  0
 13 18  1  0  0  0  0
 13 36  1  0  0  0  0
 13 37  1  0  0  0  0
 14 16  1  0  0  0  0
 14 20  1  0  0  0  0
 14 38  1  0  0  0  0
 14 39  1  0  0  0  0
 15 17  1  0  0  0  0
 15 20  1  0  0  0  0
 15 40  1  0  0  0  0
 15 41  1  0  0  0  0
 16 42  1  0  0  0  0
 17 19  1  0  0  0  0
 17 43  1  0  0  0  0
 19 44  1  0  0  0  0
M  END
$$$$
