44
0 1 C18FH21N2O2
C                     0.703165147636    -0.309897647130    -4.686605800009
C                     2.154084930701     1.395386328461    -3.798403384121
C                     1.758423734124    -0.825801119526    -5.445872246438
C                     3.222335225177     0.892060885062    -4.541344983481
C                     0.880238912714     0.804700024789    -3.856206532698
C                     3.002964124563    -0.214441640268    -5.356943709262
C                     0.595415036519    -1.673383019581     1.249298381493
C                     0.164221135444     1.861513138126    -1.639729910200
C                    -1.804974807751     0.572924618766     0.765247514187
C                    -1.611129453620    -0.874881453840     0.273891614783
C                    -0.894655562636     1.051312353275     1.909329516797
C                    -1.206140953069     2.328444154273    -3.749772093712
C                    -1.683509476395     1.001737619276    -3.224736028097
C                     0.625424485632    -0.525532883639    -1.048132178159
C                     1.259715891065     1.354980298735     0.473938618901
C                    -0.177316969632    -1.368477535004    -0.031993175723
C                     0.619291760978     0.801313116012     1.759377184456
C                    -0.228445103332     1.410251699491    -3.041721836072
N                     0.983836310963    -0.600413496281     1.997591587027
N                     0.667164946822     0.910163788725    -0.785731535378
O                     0.853604693436    -2.828774989130     1.588990420118
O                     0.039601833828     3.041379543085    -1.297362769648
F                     4.036577410471    -0.711756323776    -6.084908963839
H                    -0.263553402417    -0.800766327784    -4.744002932080
H                     2.310596933163     2.265952035226    -3.166952538453
H                     1.626034258936    -1.690332814352    -6.089210465465
H                     4.208438166178     1.344576156179    -4.499606321493
H                    -1.712363086061     1.268881028683    -0.068193066849
H                    -2.842465422707     0.665558063180     1.108597336819
H                    -2.032601136352    -1.567989773800     1.011999063905
H                    -2.211128900484    -1.004292566226    -0.635263567470
H                    -1.048729809734     2.129575156837     2.032033831923
H                    -1.201245121935     0.578751690664     2.850181075152
H                    -1.074728725311     2.429191240020    -4.822252091050
H                    -1.488736162399     3.231164525770    -3.219577767401
H                    -2.309151321567     1.004961266300    -2.337385550475
H                    -1.921416088334     0.212886880580    -3.931129035008
H                     1.650029958307    -0.916727443550    -1.103855109954
H                     0.176294969685    -0.679972019590    -2.024018352963
H                     1.188314766753     2.442189462180     0.484341274468
H                     2.320646870952     1.071695650876     0.481082479494
H                    -0.274139375553    -2.354845313324    -0.494022709123
H                     1.110250015458     1.351957453296     2.568298577565
H                     1.437613743813    -0.842950170684     2.870879116774
