
  -OEChem-05262117483D

 24 24  0     0  0  0  0  0  0999 V2000
    1.7295   -0.6994   -0.1179 C   0  0  0  0  0  0  0  0  0  0  0  0
    0.8133    0.0569    0.6060 C   0  0  0  0  0  0  0  0  0  0  0  0
    2.5790   -1.6469    1.9558 C   0  0  0  0  0  0  0  0  0  0  0  0
    2.6153   -1.5564    0.5569 C   0  0  0  0  0  0  0  0  0  0  0  0
    1.6600   -0.9003    2.6978 C   0  0  0  0  0  0  0  0  0  0  0  0
    0.7857   -0.0576    1.9958 C   0  0  0  0  0  0  0  0  0  0  0  0
    3.6037   -2.3620   -0.1942 C   0  0  0  0  0  0  0  0  0  0  0  0
    1.4492   -2.0211    6.1614 C   0  0  0  0  0  0  0  0  0  0  0  0
   -0.3188   -2.3905    4.3698 C   0  0  0  0  0  0  0  0  0  0  0  0
    1.1588   -2.1624    4.6751 C   0  0  0  0  0  0  0  0  0  0  0  0
    3.7225   -2.3628   -1.4092 O   0  0  0  0  0  0  0  0  0  0  0  0
    1.6219   -0.9227    4.0647 O   0  0  0  0  0  0  0  0  0  0  0  0
   -0.1164    0.6636    2.6918 F   0  0  0  0  0  0  0  0  0  0  0  0
    1.7780   -0.6402   -1.2007 H   0  0  0  0  0  0  0  0  0  0  0  0
    0.1130    0.7301    0.1204 H   0  0  0  0  0  0  0  0  0  0  0  0
    3.2785   -2.2934    2.4812 H   0  0  0  0  0  0  0  0  0  0  0  0
    4.2621   -2.9973    0.4376 H   0  0  0  0  0  0  0  0  0  0  0  0
    0.8871   -1.1801    6.5791 H   0  0  0  0  0  0  0  0  0  0  0  0
    1.1569   -2.9327    6.6916 H   0  0  0  0  0  0  0  0  0  0  0  0
    2.5148   -1.8434    6.3308 H   0  0  0  0  0  0  0  0  0  0  0  0
   -0.9182   -1.5588    4.7516 H   0  0  0  0  0  0  0  0  0  0  0  0
   -0.6611   -3.3174    4.8417 H   0  0  0  0  0  0  0  0  0  0  0  0
   -0.4934   -2.4779    3.2930 H   0  0  0  0  0  0  0  0  0  0  0  0
    1.7518   -2.9890    4.2606 H   0  0  0  0  0  0  0  0  0  0  0  0
  1  2  1  0  0  0  0
  1  4  2  0  0  0  0
  1 14  1  0  0  0  0
  2  6  2  0  0  0  0
  2 15  1  0  0  0  0
  3  4  1  0  0  0  0
  3  5  2  0  0  0  0
  3 16  1  0  0  0  0
  4  7  1  0  0  0  0
  5  6  1  0  0  0  0
  5 12  1  0  0  0  0
  6 13  1  0  0  0  0
  7 11  2  0  0  0  0
  7 17  1  0  0  0  0
  8 10  1  0  0  0  0
  8 18  1  0  0  0  0
  8 19  1  0  0  0  0
  8 20  1  0  0  0  0
  9 10  1  0  0  0  0
  9 21  1  0  0  0  0
  9 22  1  0  0  0  0
  9 23  1  0  0  0  0
 10 12  1  0  0  0  0
 10 24  1  0  0  0  0
M  END
$$$$
