
  -OEChem-05262117483D

 23 23  0     0  0  0  0  0  0999 V2000
    1.6342   -0.1589   -0.0358 C   0  0  0  0  0  0  0  0  0  0  0  0
    0.4088    0.3041    0.4538 C   0  0  0  0  0  0  0  0  0  0  0  0
    1.0518   -0.3735    2.6901 C   0  0  0  0  0  0  0  0  0  0  0  0
    2.2779   -0.8482    2.2159 C   0  0  0  0  0  0  0  0  0  0  0  0
    2.5481   -0.7218    0.8451 C   0  0  0  0  0  0  0  0  0  0  0  0
    0.1138    0.1988    1.8194 C   0  0  0  0  0  0  0  0  0  0  0  0
    4.5105   -3.1271    4.0193 C   0  0  0  0  0  0  0  0  0  0  0  0
   -2.3879   -0.7546    2.5310 C   0  0  0  0  0  0  0  0  0  0  0  0
    3.5097   -2.7579    2.9400 C   0  0  0  0  0  0  0  0  0  0  0  0
    3.1957   -1.3540    3.0991 O   0  0  0  0  0  0  0  0  0  0  0  0
    3.7450   -1.1504    0.3689 F   0  0  0  0  0  0  0  0  0  0  0  0
   -1.4459    0.8172    2.4532 S   0  0  0  0  0  0  0  0  0  0  0  0
    1.8933   -0.0783   -1.0873 H   0  0  0  0  0  0  0  0  0  0  0  0
   -0.3143    0.7508   -0.2214 H   0  0  0  0  0  0  0  0  0  0  0  0
    0.8499   -0.4464    3.7546 H   0  0  0  0  0  0  0  0  0  0  0  0
    5.4263   -2.5389    3.9108 H   0  0  0  0  0  0  0  0  0  0  0  0
    4.0945   -2.9420    5.0140 H   0  0  0  0  0  0  0  0  0  0  0  0
    4.7680   -4.1885    3.9412 H   0  0  0  0  0  0  0  0  0  0  0  0
   -3.3830   -0.5077    2.9101 H   0  0  0  0  0  0  0  0  0  0  0  0
   -1.9100   -1.4622    3.2127 H   0  0  0  0  0  0  0  0  0  0  0  0
   -2.4804   -1.2006    1.5380 H   0  0  0  0  0  0  0  0  0  0  0  0
    2.5826   -3.3375    3.0411 H   0  0  0  0  0  0  0  0  0  0  0  0
    3.9235   -2.9342    1.9420 H   0  0  0  0  0  0  0  0  0  0  0  0
  1  2  1  0  0  0  0
  1  5  2  0  0  0  0
  1 13  1  0  0  0  0
  2  6  2  0  0  0  0
  2 14  1  0  0  0  0
  3  4  2  0  0  0  0
  3  6  1  0  0  0  0
  3 15  1  0  0  0  0
  4  5  1  0  0  0  0
  4 10  1  0  0  0  0
  5 11  1  0  0  0  0
  6 12  1  0  0  0  0
  7  9  1  0  0  0  0
  7 16  1  0  0  0  0
  7 17  1  0  0  0  0
  7 18  1  0  0  0  0
  8 12  1  0  0  0  0
  8 19  1  0  0  0  0
  8 20  1  0  0  0  0
  8 21  1  0  0  0  0
  9 10  1  0  0  0  0
  9 22  1  0  0  0  0
  9 23  1  0  0  0  0
M  END
$$$$
