21
0 1 C10F3H7O
C                     1.862904625477    -0.867057129563    -0.015930038535
C                     1.840955989936    -1.319831925060     2.745052756649
C                     0.757393979328    -0.424402128539     0.734908244793
C                     2.913862112514    -1.531685460134     0.587082908499
C                     0.787292280060    -0.663012720796     2.114190504210
C                     2.903007915325    -1.759533984955     1.967062792816
C                    -0.334437869851     0.286457726708    -0.021226398609
C                    -2.856587897726     0.479352413980    -0.459059415178
C                    -2.469998184985     1.666843050729     0.357717978755
C                    -1.709027645060     0.346829882474     0.538743729202
O                    -0.068978111825     0.778331129673    -1.116124914392
F                     3.962575898762    -1.966852968760    -0.139908289587
F                    -0.215640316610    -0.224184385395     2.914212152656
F                     3.933399427496    -2.403224620128     2.540059697189
H                     1.879192567727    -0.675400388874    -1.083918242123
H                     1.836592817999    -1.477238739727     3.818228600852
H                    -3.770251595730    -0.051792351644    -0.210804240167
H                    -2.572611874550     0.477760791809    -1.506038140479
H                    -1.920032893190     2.459328469555    -0.139084635842
H                    -3.104660051508     1.972865554312     1.183298447260
H                    -1.905103920351    -0.203341126962     1.448377388198
