
  -OEChem-05262117483D

 21 22  0     0  0  0  0  0  0999 V2000
   -2.2344   -3.0453    0.4808 C   0  0  0  0  0  0  0  0  0  0  0  0
   -3.4739   -1.2863   -0.5444 C   0  0  0  0  0  0  0  0  0  0  0  0
   -3.4477   -2.5833   -0.0295 C   0  0  0  0  0  0  0  0  0  0  0  0
   -1.2467   -1.0503   -0.0555 C   0  0  0  0  0  0  0  0  0  0  0  0
   -0.0072    1.0321   -0.9554 C   0  0  0  0  0  0  0  0  0  0  0  0
   -0.2113    1.2216    0.5184 C   0  0  0  0  0  0  0  0  0  0  0  0
   -0.0274   -0.1891   -0.0430 C   0  0  0  0  0  0  0  0  0  0  0  0
    1.2965   -0.8837    0.2069 C   0  0  0  0  0  0  0  0  0  0  0  0
   -1.1395   -2.2819    0.4715 N   0  0  0  0  0  0  0  0  0  0  0  0
   -2.3795   -0.5240   -0.5603 N   0  0  0  0  0  0  0  0  0  0  0  0
    1.6938   -1.7218   -0.8802 O   0  0  0  0  0  0  0  0  0  0  0  0
   -5.0120   -3.6759   -0.0190 Br  0  0  0  0  0  0  0  0  0  0  0  0
   -2.1437   -4.0435    0.9052 H   0  0  0  0  0  0  0  0  0  0  0  0
   -4.3889   -0.8586   -0.9501 H   0  0  0  0  0  0  0  0  0  0  0  0
   -0.8630    1.1748   -1.6048 H   0  0  0  0  0  0  0  0  0  0  0  0
    0.9563    1.3114   -1.3749 H   0  0  0  0  0  0  0  0  0  0  0  0
    0.6033    1.6238    1.1139 H   0  0  0  0  0  0  0  0  0  0  0  0
   -1.2085    1.4823    0.8571 H   0  0  0  0  0  0  0  0  0  0  0  0
    1.2273   -1.5423    1.0735 H   0  0  0  0  0  0  0  0  0  0  0  0
    2.0644   -0.1226    0.4104 H   0  0  0  0  0  0  0  0  0  0  0  0
    1.6789   -1.1818   -1.6866 H   0  0  0  0  0  0  0  0  0  0  0  0
  1  3  1  0  0  0  0
  1  9  2  0  0  0  0
  1 13  1  0  0  0  0
  2  3  2  0  0  0  0
  2 10  1  0  0  0  0
  2 14  1  0  0  0  0
  3 12  1  0  0  0  0
  4  7  1  0  0  0  0
  4  9  1  0  0  0  0
  4 10  2  0  0  0  0
  5  6  1  0  0  0  0
  5  7  1  0  0  0  0
  5 15  1  0  0  0  0
  5 16  1  0  0  0  0
  6  7  1  0  0  0  0
  6 17  1  0  0  0  0
  6 18  1  0  0  0  0
  7  8  1  0  0  0  0
  8 11  1  0  0  0  0
  8 19  1  0  0  0  0
  8 20  1  0  0  0  0
 11 21  1  0  0  0  0
M  END
$$$$
