
  -OEChem-05262117483D

 21 21  0     0  0  0  0  0  0999 V2000
    1.6966   -0.8883   -0.3043 C   0  0  0  0  0  0  0  0  0  0  0  0
    0.6819   -0.3068    0.4487 C   0  0  0  0  0  0  0  0  0  0  0  0
    2.8236   -1.5514    1.7192 C   0  0  0  0  0  0  0  0  0  0  0  0
    1.8155   -0.9720    2.5084 C   0  0  0  0  0  0  0  0  0  0  0  0
    2.7837   -1.5182    0.3253 C   0  0  0  0  0  0  0  0  0  0  0  0
    0.7484   -0.3532    1.8410 C   0  0  0  0  0  0  0  0  0  0  0  0
    1.9866   -1.0688    3.9909 C   0  0  0  0  0  0  0  0  0  0  0  0
    1.0927   -0.6203    6.1234 C   0  0  0  0  0  0  0  0  0  0  0  0
    3.8746   -2.1399   -0.4810 C   0  0  0  0  0  0  0  0  0  0  0  0
    2.9650   -1.5775    4.5126 O   0  0  0  0  0  0  0  0  0  0  0  0
    0.9615   -0.5451    4.6880 O   0  0  0  0  0  0  0  0  0  0  0  0
   -0.2585    0.2311    2.5190 F   0  0  0  0  0  0  0  0  0  0  0  0
    3.3763   -3.9825   -1.1032 Br  0  0  0  0  0  0  0  0  0  0  0  0
    1.6419   -0.8619   -1.3897 H   0  0  0  0  0  0  0  0  0  0  0  0
   -0.1647    0.1863   -0.0187 H   0  0  0  0  0  0  0  0  0  0  0  0
    3.6454   -2.0338    2.2399 H   0  0  0  0  0  0  0  0  0  0  0  0
    0.1876   -0.1594    6.5178 H   0  0  0  0  0  0  0  0  0  0  0  0
    1.9804   -0.0755    6.4527 H   0  0  0  0  0  0  0  0  0  0  0  0
    1.1695   -1.6616    6.4442 H   0  0  0  0  0  0  0  0  0  0  0  0
    4.7907   -2.2801    0.0886 H   0  0  0  0  0  0  0  0  0  0  0  0
    4.0842   -1.5970   -1.4007 H   0  0  0  0  0  0  0  0  0  0  0  0
  1  2  1  0  0  0  0
  1  5  2  0  0  0  0
  1 14  1  0  0  0  0
  2  6  2  0  0  0  0
  2 15  1  0  0  0  0
  3  4  2  0  0  0  0
  3  5  1  0  0  0  0
  3 16  1  0  0  0  0
  4  6  1  0  0  0  0
  4  7  1  0  0  0  0
  5  9  1  0  0  0  0
  6 12  1  0  0  0  0
  7 10  2  0  0  0  0
  7 11  1  0  0  0  0
  8 11  1  0  0  0  0
  8 17  1  0  0  0  0
  8 18  1  0  0  0  0
  8 19  1  0  0  0  0
  9 13  1  0  0  0  0
  9 20  1  0  0  0  0
  9 21  1  0  0  0  0
M  END
$$$$
