
  -OEChem-05262117483D

 51 54  0     1  0  0  0  0  0999 V2000
   -1.6109    3.2795   -2.4720 C   0  0  0  0  0  0  0  0  0  0  0  0
   -3.2351    2.1861   -3.9039 C   0  0  0  0  0  0  0  0  0  0  0  0
   -2.0844    2.0873   -3.1019 C   0  0  0  0  0  0  0  0  0  0  0  0
   -3.7021    1.1064   -4.6414 C   0  0  0  0  0  0  0  0  0  0  0  0
   -2.9380   -0.0825   -4.5645 C   0  0  0  0  0  0  0  0  0  0  0  0
   -1.4230    0.8211   -3.0358 C   0  0  0  0  0  0  0  0  0  0  0  0
   -0.0084   -0.1742    0.8239 C   0  0  0  0  0  0  0  0  0  0  0  0
    1.5981    2.1570    1.4739 C   0  0  0  0  0  0  0  0  0  0  0  0
   -2.5756    1.7058    3.8117 C   0  0  0  0  0  0  0  0  0  0  0  0
   -3.2063    0.3899    4.2229 C   0  0  0  0  0  0  0  0  0  0  0  0
    2.1098    1.1788    0.4202 C   0  0  0  0  0  0  0  0  0  0  0  0
    1.3985   -0.6511   -1.2208 C   0  0  0  0  0  0  0  0  0  0  0  0
    0.8970    1.3906    2.5888 C   0  0  0  0  0  0  0  0  0  0  0  0
    0.2758   -0.7784   -2.2512 C   0  0  0  0  0  0  0  0  0  0  0  0
    0.0850    1.3777   -1.1200 C   0  0  0  0  0  0  0  0  0  0  0  0
   -2.3006    0.4478    3.0152 C   0  0  0  0  0  0  0  0  0  0  0  0
    0.9365    0.4342   -0.2244 C   0  0  1  0  0  0  0  0  0  0  0  0
   -4.9391    1.2041   -5.5005 C   0  0  0  0  0  0  0  0  0  0  0  0
   -3.3270   -1.2974   -5.3693 C   0  0  0  0  0  0  0  0  0  0  0  0
   -0.9446   -0.2234    3.0615 C   0  0  0  0  0  0  0  0  0  0  0  0
   -1.2481    4.2833   -1.9971 N   0  0  0  0  0  0  0  0  0  0  0  0
   -1.8564   -0.2090   -3.7950 N   0  0  0  0  0  0  0  0  0  0  0  0
   -0.3374    0.5607   -2.2562 N   0  0  2  0  0  0  0  0  0  0  0  0
   -0.0012    0.3443    2.0889 N   0  0  0  0  0  0  0  0  0  0  0  0
   -0.7914   -1.0787    0.5082 O   0  0  0  0  0  0  0  0  0  0  0  0
   -3.7490    3.1429   -3.9499 H   0  0  0  0  0  0  0  0  0  0  0  0
    2.4181    2.7380    1.9083 H   0  0  0  0  0  0  0  0  0  0  0  0
    0.9061    2.8722    1.0157 H   0  0  0  0  0  0  0  0  0  0  0  0
   -3.2107    2.4672    3.3684 H   0  0  0  0  0  0  0  0  0  0  0  0
   -1.7844    2.0978    4.4456 H   0  0  0  0  0  0  0  0  0  0  0  0
   -2.8259   -0.0910    5.1206 H   0  0  0  0  0  0  0  0  0  0  0  0
   -4.2709    0.2525    4.0596 H   0  0  0  0  0  0  0  0  0  0  0  0
    2.6800    1.7001   -0.3567 H   0  0  0  0  0  0  0  0  0  0  0  0
    2.7915    0.4550    0.8861 H   0  0  0  0  0  0  0  0  0  0  0  0
    1.6043   -1.6031   -0.7273 H   0  0  0  0  0  0  0  0  0  0  0  0
    2.3207   -0.3070   -1.7023 H   0  0  0  0  0  0  0  0  0  0  0  0
    1.6461    0.9248    3.2469 H   0  0  0  0  0  0  0  0  0  0  0  0
    0.3087    2.0772    3.2047 H   0  0  0  0  0  0  0  0  0  0  0  0
    0.6404   -1.0301   -3.2506 H   0  0  0  0  0  0  0  0  0  0  0  0
   -0.4603   -1.5258   -1.9508 H   0  0  0  0  0  0  0  0  0  0  0  0
   -0.7812    1.7762   -0.5861 H   0  0  0  0  0  0  0  0  0  0  0  0
    0.6911    2.2308   -1.4453 H   0  0  0  0  0  0  0  0  0  0  0  0
   -2.7856    0.3721    2.0458 H   0  0  0  0  0  0  0  0  0  0  0  0
   -4.7179    1.0091   -6.5564 H   0  0  0  0  0  0  0  0  0  0  0  0
   -5.7029    0.4796   -5.1945 H   0  0  0  0  0  0  0  0  0  0  0  0
   -5.3828    2.2012   -5.4332 H   0  0  0  0  0  0  0  0  0  0  0  0
   -3.3448   -1.0720   -6.4420 H   0  0  0  0  0  0  0  0  0  0  0  0
   -2.6169   -2.1046   -5.1862 H   0  0  0  0  0  0  0  0  0  0  0  0
   -4.3326   -1.6415   -5.1006 H   0  0  0  0  0  0  0  0  0  0  0  0
   -1.0525   -1.2882    2.8456 H   0  0  0  0  0  0  0  0  0  0  0  0
   -0.5014   -0.1190    4.0585 H   0  0  0  0  0  0  0  0  0  0  0  0
  1  3  1  0  0  0  0
  1 21  3  0  0  0  0
  2  3  1  0  0  0  0
  2  4  2  0  0  0  0
  2 26  1  0  0  0  0
  3  6  2  0  0  0  0
  4  5  1  0  0  0  0
  4 18  1  0  0  0  0
  5 19  1  0  0  0  0
  5 22  2  0  0  0  0
  6 22  1  0  0  0  0
  6 23  1  0  0  0  0
  7 17  1  0  0  0  0
  7 24  1  0  0  0  0
  7 25  2  0  0  0  0
  8 11  1  0  0  0  0
  8 13  1  0  0  0  0
  8 27  1  0  0  0  0
  8 28  1  0  0  0  0
  9 10  1  0  0  0  0
  9 16  1  0  0  0  0
  9 29  1  0  0  0  0
  9 30  1  0  0  0  0
 10 16  1  0  0  0  0
 10 31  1  0  0  0  0
 10 32  1  0  0  0  0
 11 17  1  0  0  0  0
 11 33  1  0  0  0  0
 11 34  1  0  0  0  0
 12 14  1  0  0  0  0
 12 17  1  0  0  0  0
 12 35  1  0  0  0  0
 12 36  1  0  0  0  0
 13 24  1  0  0  0  0
 13 37  1  0  0  0  0
 13 38  1  0  0  0  0
 14 23  1  0  0  0  0
 14 39  1  0  0  0  0
 14 40  1  0  0  0  0
 15 17  1  0  0  0  0
 15 23  1  0  0  0  0
 15 41  1  0  0  0  0
 15 42  1  0  0  0  0
 16 20  1  0  0  0  0
 16 43  1  0  0  0  0
 18 44  1  0  0  0  0
 18 45  1  0  0  0  0
 18 46  1  0  0  0  0
 19 47  1  0  0  0  0
 19 48  1  0  0  0  0
 19 49  1  0  0  0  0
 20 24  1  0  0  0  0
 20 50  1  0  0  0  0
 20 51  1  0  0  0  0
M  END
$$$$
