
  -OEChem-05262117483D

 36 38  0     0  0  0  0  0  0999 V2000
   -5.6764    3.4129   -0.8310 C   0  0  0  0  0  0  0  0  0  0  0  0
   -6.2047    2.8007   -1.9705 C   0  0  0  0  0  0  0  0  0  0  0  0
   -5.3481    2.6390    0.2830 C   0  0  0  0  0  0  0  0  0  0  0  0
   -6.4085    1.4194   -1.9791 C   0  0  0  0  0  0  0  0  0  0  0  0
   -5.5356    1.2472    0.3058 C   0  0  0  0  0  0  0  0  0  0  0  0
   -6.0830    0.6634   -0.8510 C   0  0  0  0  0  0  0  0  0  0  0  0
   -4.2539   -0.7674    1.3781 C   0  0  0  0  0  0  0  0  0  0  0  0
   -0.3173   -0.4509    1.0449 C   0  0  0  0  0  0  0  0  0  0  0  0
   -1.2482    0.7625    1.1779 C   0  0  0  0  0  0  0  0  0  0  0  0
   -1.0910   -1.7597    1.2605 C   0  0  0  0  0  0  0  0  0  0  0  0
   -5.2183    1.0456    2.9041 C   0  0  0  0  0  0  0  0  0  0  0  0
   -6.3549    0.1629    2.4791 C   0  0  0  0  0  0  0  0  0  0  0  0
   -2.4830    0.6240    0.2738 C   0  0  0  0  0  0  0  0  0  0  0  0
   -2.3196   -1.8161    0.3453 C   0  0  0  0  0  0  0  0  0  0  0  0
   -5.2088    0.4165    1.5120 C   0  0  0  0  0  0  0  0  0  0  0  0
   -3.1783   -0.6399    0.5320 N   0  0  0  0  0  0  0  0  0  0  0  0
   -4.4662   -1.8099    2.0024 O   0  0  0  0  0  0  0  0  0  0  0  0
   -6.4035   -1.0622   -0.9016 Cl  0  0  0  0  0  0  0  0  0  0  0  0
   -5.5146    4.4872   -0.8103 H   0  0  0  0  0  0  0  0  0  0  0  0
   -6.4615    3.3889   -2.8472 H   0  0  0  0  0  0  0  0  0  0  0  0
   -4.9188    3.1217    1.1560 H   0  0  0  0  0  0  0  0  0  0  0  0
   -6.8267    0.9251   -2.8503 H   0  0  0  0  0  0  0  0  0  0  0  0
    0.5138   -0.3728    1.7548 H   0  0  0  0  0  0  0  0  0  0  0  0
    0.1263   -0.4543    0.0393 H   0  0  0  0  0  0  0  0  0  0  0  0
   -1.5861    0.8580    2.2180 H   0  0  0  0  0  0  0  0  0  0  0  0
   -0.7178    1.6880    0.9230 H   0  0  0  0  0  0  0  0  0  0  0  0
   -0.4474   -2.6253    1.0651 H   0  0  0  0  0  0  0  0  0  0  0  0
   -1.4291   -1.8336    2.3007 H   0  0  0  0  0  0  0  0  0  0  0  0
   -5.3926    2.1130    2.9915 H   0  0  0  0  0  0  0  0  0  0  0  0
   -4.5070    0.6406    3.6172 H   0  0  0  0  0  0  0  0  0  0  0  0
   -6.4125   -0.8389    2.8877 H   0  0  0  0  0  0  0  0  0  0  0  0
   -7.2970    0.6403    2.2295 H   0  0  0  0  0  0  0  0  0  0  0  0
   -3.1569    1.4611    0.4233 H   0  0  0  0  0  0  0  0  0  0  0  0
   -2.1801    0.6389   -0.7816 H   0  0  0  0  0  0  0  0  0  0  0  0
   -2.0043   -1.8253   -0.7066 H   0  0  0  0  0  0  0  0  0  0  0  0
   -2.9164   -2.7063    0.5372 H   0  0  0  0  0  0  0  0  0  0  0  0
  1  2  1  0  0  0  0
  1  3  2  0  0  0  0
  1 19  1  0  0  0  0
  2  4  2  0  0  0  0
  2 20  1  0  0  0  0
  3  5  1  0  0  0  0
  3 21  1  0  0  0  0
  4  6  1  0  0  0  0
  4 22  1  0  0  0  0
  5  6  2  0  0  0  0
  5 15  1  0  0  0  0
  6 18  1  0  0  0  0
  7 15  1  0  0  0  0
  7 16  1  0  0  0  0
  7 17  2  0  0  0  0
  8  9  1  0  0  0  0
  8 10  1  0  0  0  0
  8 23  1  0  0  0  0
  8 24  1  0  0  0  0
  9 13  1  0  0  0  0
  9 25  1  0  0  0  0
  9 26  1  0  0  0  0
 10 14  1  0  0  0  0
 10 27  1  0  0  0  0
 10 28  1  0  0  0  0
 11 12  1  0  0  0  0
 11 15  1  0  0  0  0
 11 29  1  0  0  0  0
 11 30  1  0  0  0  0
 12 15  1  0  0  0  0
 12 31  1  0  0  0  0
 12 32  1  0  0  0  0
 13 16  1  0  0  0  0
 13 33  1  0  0  0  0
 13 34  1  0  0  0  0
 14 16  1  0  0  0  0
 14 35  1  0  0  0  0
 14 36  1  0  0  0  0
M  END
$$$$
