21
0 1 BrC8H9N2O
C                    -2.234409469773    -3.045280055387     0.480761327137
C                    -3.473893386752    -1.286285725351    -0.544370787990
C                    -3.447747291117    -2.583255342791    -0.029535957221
C                    -1.246693967058    -1.050273329697    -0.055523881787
C                    -0.007154094881     1.032101929335    -0.955356623205
C                    -0.211331692260     1.221586852667     0.518443200209
C                    -0.027381094701    -0.189145583153    -0.042986932818
C                     1.296450865020    -0.883706563349     0.206882312063
N                    -1.139520659100    -2.281856720881     0.471486649836
N                    -2.379478978156    -0.523998338521    -0.560332217317
O                     1.693812863610    -1.721840951536    -0.880230255375
Br                   -5.012012694541    -3.675902934515    -0.018981295499
H                    -2.143668410690    -4.043482829105     0.905175293370
H                    -4.388930029737    -0.858577345226    -0.950051854506
H                    -0.863044055977     1.174805486410    -1.604839134700
H                     0.956279413009     1.311404174718    -1.374943408464
H                     0.603302020669     1.623778720452     1.113926659341
H                    -1.208528653562     1.482327477121     0.857109333559
H                     1.227339516957    -1.542330076690     1.073461065427
H                     2.064411058007    -0.122637390084     0.410354177546
H                     1.678909338903    -1.181833303733    -1.686551594469
