22   
torsion grid (-165,)
C        1.8054032768   -1.3326251910   -0.0627624669
C        0.8071813594   -0.5857387774    0.5550184722
C        1.9862463316   -0.8382188832    2.6764735978
C        3.0104742766   -1.5717823061    2.0627879449
C        2.8951699884   -1.7975674835    0.6791845496
C        0.9255308331   -0.3532471873    1.9220524285
C        3.6250242497   -3.5688056413    3.4294599330
C        4.0866020227   -2.1864649398    2.9459194633
N        4.3206123616   -1.3540264807    4.1392677706
N        3.9219917432   -2.5228209395   -0.0942169721
O        5.1108999735   -2.3289814902    0.1852742697
O        3.5285909881   -3.2464417169   -1.0124575781
F       -0.0360934184    0.3647526091    2.5450796479
F        3.7197282897   -4.4833684081    2.3746160451
H        1.7571032087   -1.5536812872   -1.1228555684
H       -0.0404075611   -0.1949185659    0.0017985514
H        2.0234362686   -0.6585707283    3.7455757913
H        4.2830450745   -3.9267068458    4.2288201791
H        2.5908042584   -3.5552004319    3.7831797996
H        4.9907189509   -2.3429954309    2.3550201978
H        4.6401674762   -0.4314368227    3.8472650611
H        5.0804324856   -1.7600446792    4.6833973016
22   
torsion grid (-150,)
C        1.8008832999   -1.2743631154   -0.1031416351
C        0.7893469222   -0.5542452584    0.5239476767
C        1.9550918331   -0.8408866112    2.6478536482
C        2.9905357882   -1.5521302409    2.0255985465
C        2.8909387028   -1.7433440122    0.6366440717
C        0.8950818568   -0.3496939494    1.8971794162
C        3.5780423132   -3.5314899086    3.4577892431
C        4.0619635758   -2.1765796200    2.9072539056
N        4.3618355485   -1.2969113421    4.0518406163
N        3.9386361788   -2.4284829297   -0.1448269701
O        5.1203913294   -2.2019667265    0.1404846624
O        3.5674670233   -3.1537264861   -1.0715605930
F       -0.0782205913    0.3458993738    2.5271098318
F        3.9274410233   -4.5484396339    2.5619174978
H        1.7645025904   -1.4690100762   -1.1689527959
H       -0.0583785671   -0.1601293346   -0.0266929527
H        1.9872302188   -0.6790676330    3.7201372358
H        4.0830767834   -3.7494200739    4.4045471463
H        2.4961761598   -3.5659635451    3.6078843999
H        4.9451381563   -2.3930633049    2.3036437790
H        4.7005435706   -0.4001425600    3.7059189103
H        5.1250105777   -1.7035301145    4.5907381574
22   
torsion grid (-135,)
C        1.8302236478   -0.9988706115   -0.1814819207
C        0.7437815263   -0.4596550697    0.4981486360
C        1.8105892819   -1.0608065953    2.6090666408
C        2.9077273273   -1.6185438865    1.9395997142
C        2.9017745673   -1.5391940865    0.5374763125
C        0.7667191715   -0.4925993640    1.8909887193
C        3.4600387364   -3.3411307684    3.7454263232
C        4.0031909249   -2.2839838412    2.7612037231
N        4.7130078649   -1.2383352983    3.5229061853
N        4.0598809025   -1.9685501890   -0.2623834255
O        5.1886174089   -1.7452479579    0.1963466888
O        3.8390346907   -2.4860826108   -1.3606259827
F       -0.2707352878    0.0435587177    2.5706182634
F        3.7303361115   -4.6239031275    3.2475245033
H        1.8708384694   -0.9907510429   -1.2648004415
H       -0.0961836410   -0.0156191454   -0.0257225740
H        1.7719634587   -1.0579796635    3.6934418778
H        3.9725941035   -3.2516771454    4.7075112012
H        2.3819564883   -3.2794524571    3.9060108905
H        4.6665553526   -2.8368978652    2.0912627291
H        5.0790633476   -0.5517055013    2.8638005534
H        5.5263133229   -1.6560867654    3.9753139949
22   
torsion grid (-120,)
C        1.7505968533   -1.1225346938   -0.0841916650
C        0.7340841415   -0.4805456534    0.6213362416
C        1.8845632419   -1.0338355750    2.7000354290
C        2.9216975003   -1.6627292131    2.0038141596
C        2.8301344608   -1.6794900693    0.6011230066
C        0.8292011701   -0.4458110895    2.0080316244
C        5.3572453555   -1.5725107679    2.7920932699
C        4.0244061671   -2.3573032867    2.7898551708
N        4.2074780048   -3.7112866677    2.2459844752
N        3.8969721098   -2.2520410369   -0.2377041994
O        5.0604266881   -1.9333061847    0.0233794977
O        3.5527278213   -2.9596989721   -1.1864038501
F       -0.1489656653    0.1618441576    2.7162721341
F        5.6652834499   -1.2111153914    4.1179940988
H        1.7206672350   -1.1860108396   -1.1665611749
H       -0.1115895679   -0.0240148408    0.1177724064
H        1.8849272509   -1.0081131964    3.7856462854
H        6.1766750530   -2.1846714187    2.4094913039
H        5.3010885634   -0.6494228338    2.2170554552
H        3.7058333844   -2.3587195680    3.8416074605
H        3.3891386280   -4.2808445945    2.4541272470
H        5.0052897241   -4.1615717755    2.6913153828
22   
torsion grid (-105,)
C        1.8836609073   -1.4790356763   -0.1009603388
C        0.9542116182   -0.5463813457    0.3446055400
C        2.1294132427   -0.4606225387    2.4842672163
C        3.0646195904   -1.4137711015    2.0599726033
C        2.9035056819   -1.9153513364    0.7519443171
C        1.1005307356   -0.0603637464    1.6409405017
C        3.7412854693   -3.0323881945    3.8714110713
C        4.1794416700   -1.8137022488    3.0291976594
N        4.4359713106   -0.6777725695    3.9348075410
N        3.7975605824   -2.9436434329    0.2037207625
O        3.9551127001   -2.9751778469   -1.0220963491
O        4.3263207104   -3.7311561996    0.9982402232
F        0.2095319018    0.8475900635    2.0965614652
F        4.7852609723   -3.9587071138    3.9602760163
H        1.8290692203   -1.8863153185   -1.1037237321
H        0.1418928097   -0.1998970503   -0.2856606890
H        2.2264723145   -0.0273214979    3.4731360692
H        3.4752481157   -2.7145812882    4.8844972971
H        2.8985255432   -3.5540672560    3.4147668055
H        5.0599867316   -2.1314405009    2.4638671836
H        4.8852999754    0.0779760209    3.4179866930
H        5.1070879069   -0.9726701214    4.6441187011
22   
torsion grid (-90,)
C        1.8696749727   -1.4708576668   -0.0875936364
C        0.9441241039   -0.5395886679    0.3687469328
C        2.1393654836   -0.4552182652    2.4959854239
C        3.0692188270   -1.4082309832    2.0601208269
C        2.8992739196   -1.9096846143    0.7526520327
C        1.1022324015   -0.0535192827    1.6637788240
C        3.7182056650   -3.0127501943    3.8617574208
C        4.1862734135   -1.8138613520    3.0229446198
N        4.4702244214   -0.6846156000    3.9268345366
N        3.7944576057   -2.9295812574    0.1884220330
O        3.9289507861   -2.9611994778   -1.0397951356
O        4.3494421014   -3.7121385269    0.9709862253
F        0.2159557611    0.8539420184    2.1285205033
F        4.8280587739   -3.7854179149    4.2330815007
H        1.8046609756   -1.8750869421   -1.0908393745
H        0.1256281557   -0.1929252239   -0.2533871114
H        2.2492673859   -0.0227414689    3.4839489464
H        3.2178857080   -2.6683008158    4.7721514593
H        3.0595402008   -3.6661967199    3.2883830259
H        5.0575950802   -2.1521072577    2.4555002099
H        4.9561655512    0.0509441296    3.4141697153
H        5.1202141872   -1.0035345793    4.6456477343
22   
torsion grid (-75,)
C        1.8699774425   -1.4696505296   -0.0914100996
C        0.9450186780   -0.5426457384    0.3740606222
C        2.1452500497   -0.4721161530    2.4983521633
C        3.0739824131   -1.4228321597    2.0546982040
C        2.9017712852   -1.9140066228    0.7437099442
C        1.1060441400   -0.0646144474    1.6719821969
C        3.7010733961   -3.0047680271    3.8655523138
C        4.1905434670   -1.8307389343    3.0155847809
N        4.5019920297   -0.7063071203    3.9127721455
N        3.7999641322   -2.9235151735    0.1648877259
O        3.9357852774   -2.9350775591   -1.0632876095
O        4.3572654676   -3.7180391847    0.9341584111
F        0.2209369695    0.8400723110    2.1439580864
F        4.8034074817   -3.5875320454    4.5138447618
H        1.8029158264   -1.8657792376   -1.0977504593
H        0.1249663894   -0.1918978629   -0.2437261783
H        2.2610935385   -0.0438991655    3.4876661848
H        3.0031230627   -2.6572365137    4.6334369709
H        3.2467641322   -3.7783843345    3.2459840928
H        5.0549517611   -2.1881130181    2.4481309718
H        5.0182094110    0.0087374994    3.4016368467
H        5.1292105309   -1.0454465483    4.6420742418
22   
torsion grid (-60,)
C        1.8220984489   -1.4737691180   -0.0925079845
C        0.9130145586   -0.5395287613    0.3886665212
C        2.1457983984   -0.4835198457    2.4945665786
C        3.0585300952   -1.4422464044    2.0345291086
C        2.8633878927   -1.9290718326    0.7254554327
C        1.0984863483   -0.0649244781    1.6849542479
C        3.6991759915   -3.0220694792    3.8411643324
C        4.1855354943   -1.8555004605    2.9789888842
N        4.5359136456   -0.7414746511    3.8713435591
N        3.7463863390   -2.9413349441    0.1276682861
O        3.8602275113   -2.9484120131   -1.1027149364
O        4.3155102904   -3.7411807095    0.8829036112
F        0.2293936829    0.8474164610    2.1714267271
F        4.7331955723   -3.4001921554    4.7168689885
H        1.7356732332   -1.8671451401   -1.0983882155
H        0.0868202609   -0.1801969177   -0.2158732929
H        2.2824961018   -0.0581021903    3.4826015500
H        2.8494327511   -2.7147522971    4.4582941317
H        3.4475420330   -3.8869769927    3.2275533891
H        5.0377962130   -2.2191237712    2.3955755735
H        5.0678388353   -0.0414666443    3.3568588391
H        5.1495076999   -1.0996594658    4.6019144276
22   
torsion grid (-45,)
C        1.8067629305   -1.2946395230   -0.2062773177
C        0.8543436934   -0.3929150952    0.2513467602
C        2.0448600258   -0.2748570029    2.3792226656
C        3.0019854677   -1.2006820624    1.9425038157
C        2.8504661527   -1.7032306315    0.6336828717
C        0.9980290722    0.0976677671    1.5473221350
C        3.6896689667   -2.7647835653    3.7595562950
C        4.1271565153   -1.5599049170    2.9107621251
N        4.4165553689   -0.4359562161    3.8097385520
N        3.7843050423   -2.6814966315    0.0573000925
O        3.9096676992   -2.6986459675   -1.1717560314
O        4.3841262457   -3.4445142638    0.8270088343
F        0.0858207196    0.9795925510    2.0100275158
F        4.5545594992   -2.9014399159    4.8604525515
H        1.7536228924   -1.6983431261   -1.2103041980
H        0.0260035607   -0.0699235977   -0.3704930518
H        2.1472610211    0.1599824482    3.3674511381
H        2.6898418374   -2.6003866467    4.1722593236
H        3.7241961040   -3.6855434058    3.1786186246
H        5.0081136099   -1.8688366206    2.3371901985
H        4.9381329639    0.2800672775    3.3082733342
H        5.0082773878   -0.7709783600    4.5670480339
22   
torsion grid (-30,)
C        1.8301013904   -1.2998211356   -0.1946946904
C        0.8832264014   -0.3911920135    0.2603031381
C        2.0823532745   -0.2622573477    2.3830474654
C        3.0340485333   -1.1947751124    1.9498466175
C        2.8749145051   -1.7057535654    0.6455260819
C        1.0335667872    0.1078968946    1.5526186492
C        3.7600746987   -2.7908034449    3.7498381981
C        4.1659166571   -1.5500328692    2.9145340285
N        4.4447676011   -0.4275387388    3.8166834807
N        3.8015709452   -2.6938569606    0.0765541405
O        3.9243485069   -2.7264550629   -1.1522648431
O        4.4000723670   -3.4510256364    0.8535851710
F        0.1260823470    0.9966116989    2.0119951552
F        4.3888733794   -2.7617496688    5.0071867454
H        1.7716369555   -1.7111687591   -1.1953604217
H        0.0536954972   -0.0692713756   -0.3604865222
H        2.1915011356    0.1788137661    3.3678000897
H        2.6852540496   -2.7865623701    3.9514216468
H        4.0481959076   -3.7100409448    3.2433883714
H        5.0486388273   -1.8278855249    2.3278420303
H        4.9999475771    0.2727891676    3.3306972474
H        4.9870093935   -0.7629542543    4.6087621927
22   
torsion grid (-15,)
C        1.8335692558   -1.3103357626   -0.1970389518
C        0.9004298826   -0.3860148262    0.2548853682
C        2.1210575461   -0.2433791223    2.3658658017
C        3.0583956004   -1.1908101496    1.9360304733
C        2.8806598959   -1.7164923203    0.6400516414
C        1.0680782630    0.1262150942    1.5400458094
C        3.8404797517   -2.8433835681    3.6892524932
C        4.2014275039   -1.5514446277    2.8902337345
N        4.4533381001   -0.4415708584    3.8152362397
N        3.7884415431   -2.7267574746    0.0840553378
O        3.9047721669   -2.7871650721   -1.1441032696
O        4.3791475966   -3.4773374027    0.8744745982
F        0.1733728915    1.0295288605    1.9966038657
F        4.1776756830   -2.7063129043    5.0471688408
H        1.7621485260   -1.7342399643   -1.1916696962
H        0.0686582544   -0.0625570254   -0.3620927822
H        2.2451140716    0.2080874544    3.3439798206
H        2.7658051167   -3.0377244289    3.6601927578
H        4.3833854435   -3.7016183405    3.2991663487
H        5.0864811884   -1.7834632725    2.2884474934
H        5.0682523486    0.2389519334    3.3765658939
H        4.9102740425   -0.7890228814    4.6538290143
22   
torsion grid (0,)
C        1.7641865275   -1.3091180909   -0.1705464779
C        0.8553002992   -0.3561794800    0.2711733845
C        2.1248955534   -0.1619243957    2.3503707411
C        3.0374378829   -1.1370073062    1.9333811666
C        2.8231853785   -1.7016900739    0.6581195076
C        1.0594353636    0.1951487096    1.5345563975
C        3.8942567179   -2.8303484966    3.6276941787
C        4.1984948092   -1.4933342453    2.8734882127
N        4.4254333836   -0.3993971597    3.8231378649
N        3.7072746497   -2.7393517771    0.1182832867
O        3.7632909735   -2.8757141467   -1.1079096879
O        4.3428739398   -3.4391762535    0.9221242077
F        0.1880620492    1.1265685553    1.9796315940
F        3.9161642961   -2.6415017843    5.0221573702
H        1.6651876487   -1.7645794579   -1.1486852613
H        0.0148413414   -0.0401962719   -0.3378427035
H        2.2781713777    0.3178464764    3.3105376377
H        2.9052006963   -3.2178968467    3.3795417530
H        4.6498993667   -3.5801870224    3.3993465500
H        5.0826077995   -1.6760154733    2.2557691213
H        5.1436751673    0.2272003899    3.4720499314
H        4.7270446710   -0.7646286484    4.7216304888
22   
torsion grid (15,)
C        1.7205457631   -1.3982362790   -0.1578444196
C        0.8181204771   -0.4228687312    0.2446028179
C        2.1725184710   -0.0560065145    2.2430843006
C        3.0745351060   -1.0588252201    1.8733809346
C        2.8214091976   -1.7182476494    0.6488975941
C        1.0714588795    0.2320066329    1.4475719149
C        4.0088676665   -2.7285061999    3.5408576565
C        4.2499576076   -1.3632464411    2.8137482808
N        4.4611810035   -0.2506069240    3.7434449386
N        3.7146075537   -2.7592613970    0.1246791585
O        3.6166952320   -3.0635639623   -1.0681560939
O        4.5236488799   -3.2894281922    0.9028345527
F        0.2163227763    1.1956935232    1.8524541544
F        3.7139588901   -2.5059678929    4.9019612812
H        1.5892667726   -1.9244257238   -1.0953640357
H       -0.0495470844   -0.1624489492   -0.3523683934
H        2.3580348876    0.5190014266    3.1422681756
H        3.1692209686   -3.2839072525    3.1238657358
H        4.9076313777   -3.3456254609    3.5154890884
H        5.1433837435   -1.4773307064    2.2007083402
H        5.4566290889   -0.0950352910    3.8755854193
H        4.0786999134   -0.4833634405    4.6572450307
22   
torsion grid (30,)
C        1.6044770292   -1.4434323757    0.0156415427
C        0.7910168400   -0.4512194886    0.5460568134
C        2.2697936762   -0.3346510770    2.4854348888
C        3.0821269304   -1.3574303788    1.9857548166
C        2.7227393959   -1.8967352318    0.7292679652
C        1.1504484696    0.0860257430    1.7798787281
C        3.9524117256   -3.1725349389    3.5152195566
C        4.2766400174   -1.8157072038    2.8311030969
N        4.6534816758   -0.7799272338    3.7975034849
N        3.5175163837   -2.9410414423    0.0680505611
O        3.3441875567   -3.1239780454   -1.1410370529
O        4.3208390059   -3.5967774440    0.7508247702
F        0.3838903382    1.0644301703    2.3079686507
F        3.4379715407   -2.9346344394    4.8073731789
H        1.3894523255   -1.8801041235   -0.9518906374
H       -0.0881140251   -0.0897363125    0.0230863699
H        2.5362090564    0.1529105618    3.4152313106
H        3.2078399082   -3.7552788040    2.9757204022
H        4.8623909889   -3.7633449276    3.6455577394
H        5.1176790503   -1.9890044888    2.1610058287
H        5.6636631587   -0.7592678756    3.9080463610
H        4.2579884740   -0.9953545902    4.7103120949
22   
torsion grid (45,)
C        1.6192791621   -1.4043297073    0.0124229827
C        0.7986550564   -0.4296922510    0.5634152651
C        2.2666353636   -0.3582211420    2.5123264318
C        3.0875353209   -1.3631343631    1.9899435909
C        2.7364563466   -1.8719106338    0.7188278087
C        1.1493392572    0.0765719101    1.8125924575
C        3.9327717771   -3.1462149339    3.5565115081
C        4.2790138070   -1.8312202667    2.8305001961
N        4.7024159471   -0.7845966333    3.7681115435
N        3.5344626866   -2.8982549190    0.0321719564
O        3.3716996315   -3.0392939199   -1.1840385592
O        4.3286280974   -3.5795211468    0.6999684726
F        0.3757965439    1.0371155221    2.3628095345
F        3.1426694729   -2.8448979266    4.6863657086
H        1.4104163381   -1.8171656156   -0.9667705699
H       -0.0794906236   -0.0588833980    0.0453418663
H        2.5184461759    0.1078903765    3.4566698508
H        3.3680120107   -3.8410598579    2.9368855397
H        4.8434272377   -3.6271565339    3.9255585091
H        5.1091917851   -2.0494799182    2.1595203032
H        5.7068225868   -0.8404418650    3.9159806808
H        4.2583940816   -0.9283505284    4.6732895470
22   
torsion grid (60,)
C        1.5660078404   -1.4374234171    0.0342869872
C        0.7586316637   -0.4559372688    0.5918201168
C        2.2645271830   -0.3715649547    2.5093648444
C        3.0753141052   -1.3811914630    1.9797506731
C        2.6982613370   -1.9005548722    0.7200862731
C        1.1350224502    0.0607513702    1.8288441357
C        3.9483790742   -3.1193536740    3.5794222722
C        4.2798517971   -1.8356058963    2.8056622238
N        4.7540180219   -0.7642987945    3.6931528885
N        3.4786935850   -2.9326402206    0.0195612163
O        3.2606248558   -3.1046753711   -1.1840321611
O        4.3137413472   -3.5876618676    0.6623274051
F        0.3749832041    1.0272311427    2.3872981664
F        2.9361889313   -2.8330442712    4.5190064865
H        1.3359043324   -1.8591357230   -0.9361319442
H       -0.1290471801   -0.0884193548    0.0878716801
H        2.5274557556    0.1012098371    3.4469946505
H        3.5798175524   -3.9157187661    2.9333849125
H        4.8249072795   -3.4605414345    4.1386905576
H        5.0918526891   -2.0868149513    2.1230791238
H        5.7487879833   -0.8851998453    3.8670721087
H        4.2868075291   -0.8265040786    4.5967075629
22   
torsion grid (75,)
C        1.6627145793   -1.3102821036   -0.0385010192
C        0.8296267328   -0.3712407565    0.5556126490
C        2.2357024305   -0.4395637228    2.5501952734
C        3.0759429715   -1.3999312459    1.9730806751
C        2.7562971227   -1.8271698373    0.6681168778
C        1.1393915223    0.0426295516    1.8494564185
C        3.8822821367   -3.0747974554    3.6739207748
C        4.2680906173   -1.8771420152    2.7955555945
N        4.7627949955   -0.7779630428    3.6419448851
N        3.5499354654   -2.8388678810   -0.0418085718
O        3.5506696083   -2.8077974573   -1.2771259946
O        4.1650123382   -3.6812807757    0.6288712745
F        0.3408552596    0.9553354602    2.4444246043
F        2.6724595104   -2.8533642414    4.3429884249
H        1.4771755616   -1.6602542711   -1.0469044273
H       -0.0347161284    0.0347505374    0.0405856783
H        2.4542409490   -0.0783847246    3.5482149095
H        3.7572171867   -3.9639540343    3.0553184307
H        4.6517277792   -3.2507138808    4.4334512818
H        5.0393629394   -2.2598638462    2.1170789945
H        5.1572803346   -0.0432535979    3.0567463439
H        5.5174481584   -1.1204171079    4.2338108953
22   
torsion grid (90,)
C        1.6552277952   -1.3137177307   -0.0220044652
C        0.8358017529   -0.3593786926    0.5666788741
C        2.2554331911   -0.4191121369    2.5514435846
C        3.0823716834   -1.3938708689    1.9802113620
C        2.7493300583   -1.8320455871    0.6826012736
C        1.1592425426    0.0667055224    1.8529978337
C        3.9064752847   -3.0850634748    3.6729954293
C        4.2774232827   -1.8722428796    2.7965534493
N        4.7718270342   -0.7770917539    3.6514556000
N        3.5287880183   -2.8588308901   -0.0208991917
O        3.5084476144   -2.8527551073   -1.2565785201
O        4.1555060043   -3.6874989054    0.6553146727
F        0.3745347307    0.9945399776    2.4433686227
F        2.5691352772   -3.0404307786    4.0871969390
H        1.4586624248   -1.6746056039   -1.0244283742
H       -0.0284112711    0.0488667031    0.0532519491
H        2.4818833621   -0.0489625908    3.5444731073
H        4.0303997437   -4.0062941393    3.1037514149
H        4.5282648001   -3.1065176475    4.5735449012
H        5.0504249205   -2.2333345706    2.1086490460
H        5.1409488636   -0.0253689491    3.0706273665
H        5.5481244352   -1.1171605865    4.2159274329
22   
torsion grid (105,)
C        1.6415364949   -1.3240344595   -0.0051087820
C        0.8379078963   -0.3471202341    0.5684789677
C        2.2803882378   -0.3733263656    2.5374948900
C        3.0917945858   -1.3684936411    1.9804171517
C        2.7400796118   -1.8350590334    0.6974138757
C        1.1807695258    0.1065820191    1.8397073530
C        3.9323743221   -3.0935848918    3.6412018832
C        4.2902610326   -1.8467444816    2.7932079128
N        4.7505094811   -0.7678912103    3.6890169740
N        3.5023792001   -2.8858848697    0.0108749980
O        3.4275634018   -2.9415323609   -1.2217361876
O        4.1717319443   -3.6712063271    0.6971132568
F        0.4124245714    1.0560308004    2.4173535727
F        2.5480094688   -3.2699237848    3.7579671724
H        1.4285171312   -1.7089722456   -0.9949925255
H       -0.0286782439    0.0562386295    0.0552210446
H        2.5180735697    0.0158407237    3.5206872091
H        4.3248965956   -3.9964485852    3.1740220178
H        4.3271865799   -2.9809503326    4.6555197821
H        5.0763751306   -2.1588818914    2.0973668430
H        5.1231403569    0.0024690100    3.1346985858
H        5.5232409131   -1.1124873156    4.2562132596
22   
torsion grid (120,)
C        1.6207475772   -1.3443832367    0.0017033490
C        0.8358786794   -0.3438597077    0.5613223494
C        2.3047305871   -0.3399053523    2.5107976164
C        3.0976664944   -1.3561500993    1.9670424037
C        2.7247468860   -1.8494026757    0.6992116267
C        1.2010322654    0.1362919463    1.8158474845
C        3.9415505396   -3.1164077531    3.5883133504
C        4.2977226422   -1.8411098144    2.7744012101
N        4.7276982343   -0.7890300652    3.7160598451
N        3.4679360258   -2.9240158538    0.0270197009
O        3.3182417628   -3.0523803038   -1.1936766536
O        4.2010082197   -3.6523721865    0.7100546936
F        0.4517932425    1.1082696253    2.3813692466
F        2.6108512219   -3.5064302917    3.4061474585
H        1.3882091768   -1.7523951559   -0.9742636203
H       -0.0331747889    0.0564394811    0.0498342840
H        2.5575627760    0.0673368208    3.4828762174
H        4.5646156024   -3.9581128034    3.2840701524
H        4.0628987990   -2.9105411163    4.6564083489
H        5.0934996996   -2.1100474296    2.0732610753
H        5.1452036805   -0.0170765851    3.1966725570
H        5.4653587478   -1.1582231988    4.3144992033
22   
torsion grid (135,)
C        1.8304093126   -1.3376019706   -0.0252431790
C        0.8147510360   -0.6234936249    0.5987090463
C        1.9935080747   -0.8813858434    2.7192403912
C        3.0180767628   -1.6124134036    2.1083856559
C        2.9086154078   -1.8324981519    0.7184965095
C        0.9226332891   -0.4124249454    1.9700193010
C        3.9012772893   -3.5823575670    3.4265590831
C        4.1608603165   -2.1166171555    2.9825359213
N        4.2678567979   -1.2929300511    4.2031660003
N        3.9169987280   -2.5867619344   -0.0436603957
O        4.7300919283   -3.2865556963    0.5739573390
O        3.9009151465   -2.4835409346   -1.2761934042
F       -0.0531879756    0.2786932709    2.5996196725
F        2.8920647908   -4.1975144881    2.6829166624
H        1.8012191229   -1.5269106974   -1.0910437705
H       -0.0371859455   -0.2392174391    0.0476345928
H        2.0427888349   -0.6892527786    3.7848089101
H        4.8023282776   -4.1897466808    3.3155982416
H        3.5639231938   -3.5790471805    4.4681487047
H        5.0797175141   -2.0956006536    2.3925531723
H        4.6539766254   -0.3805217037    3.9615171205
H        4.9410612071   -1.7222498637    4.8374265885
22   
torsion grid (150,)
C        1.7885733006   -1.3468399173   -0.0512020948
C        0.8048573984   -0.5598833151    0.5387312190
C        1.9795151927   -0.7702804511    2.6659213331
C        2.9919244435   -1.5396774845    2.0826904404
C        2.8650382149   -1.8217028190    0.7046201470
C        0.9239935929   -0.2936816851    1.8977303048
C        3.8544876430   -3.5552346532    3.3358557140
C        4.1077940229   -2.0703099106    2.9818361356
N        4.1281341226   -1.3288693964    4.2586821330
N        3.8424802128   -2.6394042128   -0.0391742041
O        4.9975873965   -2.7323817194    0.3948276624
O        3.4587915192   -3.1714512042   -1.0847204175
F       -0.0262216856    0.4552314640    2.5015546599
F        3.1694141264   -4.2334647963    2.3252049063
H        1.7350761112   -1.6027694992   -1.1022580630
H       -0.0330378667   -0.1695440341   -0.0293331895
H        2.0205342185   -0.5578281739    3.7277791645
H        4.7970625777   -4.0835876845    3.5056043981
H        3.2259594445   -3.5991551743    4.2312330577
H        5.0489314142   -1.9938973844    2.4383969898
H        4.5480285126   -0.4124594344    4.1043868775
H        4.7467314734   -1.8078494178    4.9133884857
22   
torsion grid (165,)
C        1.7880894825   -1.3388277332   -0.0218613496
C        0.7969190170   -0.5793138622    0.5923543535
C        1.9996165238   -0.8017827788    2.7030912468
C        3.0191109646   -1.5427826108    2.0937284133
C        2.8835040739   -1.7984020136    0.7143254253
C        0.9285797673   -0.3298072272    1.9537969789
C        3.7697237269   -3.5487599814    3.3871240280
C        4.1302088175   -2.1101629542    2.9736493529
N        4.2361223261   -1.3269753375    4.2197784918
N        3.8810363191   -2.5650378961   -0.0568706053
O        5.0729586637   -2.4744978612    0.2626715768
O        3.4684723399   -3.2274901533   -1.0121571785
F       -0.0270371021    0.3950160116    2.5789642173
F        3.3176573806   -4.2879465328    2.2906286687
H        1.7265824767   -1.5799374006   -1.0764924708
H       -0.0552612293   -0.1959985492    0.0409671651
H        2.0484419276   -0.6063661963    3.7682462008
H        4.6424613935   -4.0667414142    3.7984155585
H        2.9632750391   -3.5242254441    4.1263706822
H        5.0575623095   -2.1315354518    2.4012223288
H        4.6222167856   -0.4089220803    4.0013978460
H        4.9152335491   -1.7724714158    4.8371259227
22   
torsion grid (180,)
C        1.7846752259   -1.3363139583   -0.0587372213
C        0.7877071505   -0.5879248171    0.5596350885
C        1.9799372033   -0.8243554723    2.6745490209
C        3.0041512333   -1.5568808872    2.0608769578
C        2.8793705282   -1.7953175821    0.6791133454
C        0.9119421731   -0.3482783794    1.9242777366
C        3.6656196497   -3.5516357386    3.3985917648
C        4.0962529252   -2.1508126213    2.9424166747
N        4.2733275971   -1.3365045828    4.1584782668
N        3.8953038455   -2.5340522932   -0.0955583142
O        5.0871370586   -2.3746074079    0.1946046242
O        3.4930545575   -3.2388185699   -1.0243949111
F       -0.0491580130    0.3686489338    2.5499630058
F        3.4801093543   -4.3774666101    2.2852268760
H        1.7299749652   -1.5656835561   -1.1166092340
H       -0.0639018830   -0.2031419579    0.0083882834
H        2.0230509818   -0.6383548494    3.7420490386
H        4.4428637518   -4.0086943011    4.0209272345
H        2.7235997614   -3.5071846289    3.9523289202
H        5.0117552584   -2.2540555880    2.3584115745
H        4.6212754236   -0.4154963610    3.8948010006
H        4.9996403560   -1.7562607502    4.7378587382
