29   
torsion grid (-165,)
C       -2.4835429202    0.7055477839    0.1734797310
C       -3.8487815573    0.5583589737    0.2095759405
C       -1.7062811730   -0.3052078935   -0.4486490389
C       -4.3771189002   -0.6091955096   -0.3818102953
C        0.5813755629    0.9759307950   -0.2565499220
C        0.6235113989   -0.1340326710    0.7652270827
C       -0.2028304868   -0.2982750105   -0.5148257501
C        1.0635283668    0.6878436894    3.1089402220
C       -6.2463495429   -1.9603004214   -0.9586611603
C        0.0599590536    0.0125132260    2.1636751670
N       -2.2887794489   -1.3761733380   -0.9932083886
N       -3.6225151665   -1.5303958076   -0.9642055086
N        0.4135346014   -1.2097881959   -1.4596154717
O       -5.7198177156   -0.7684790036   -0.3466361348
H       -2.0225486479    1.5950179867    0.5877093908
H       -4.5113115521    1.2921061508    0.6581206574
H        0.0333279776    1.8799338074   -0.0059628641
H        1.4511353434    1.1324684943   -0.8864256134
H        1.5238344071   -0.7423486510    0.7190460521
H        1.9943039096    0.1132173848    3.1718111631
H        0.6563321654    0.7777904799    4.1218156087
H        1.3189252752    1.6926263160    2.7545959543
H       -7.3262276652   -1.8947617709   -0.8220379922
H       -5.8489847132   -2.8541687747   -0.4709300083
H       -5.9927735334   -1.9944217997   -2.0213423250
H       -0.8705860695    0.5866196985    2.1603122775
H       -0.2002433818   -0.9813412140    2.5496525476
H        0.1141655699   -0.9553346624   -2.4021522901
H        0.0169137049   -2.1368475387   -1.3055886071
29   
torsion grid (-150,)
C       -2.4075760549    0.8461362514   -0.0423575559
C       -3.7737321530    0.6954003082    0.0005290026
C       -1.6181716328   -0.2508638334   -0.4646217715
C       -4.2843394611   -0.5626855954   -0.3820974533
C        0.6824307674    1.0029850858   -0.1892014378
C        0.6884322932   -0.1701451367    0.7631372190
C       -0.1141403969   -0.2395655772   -0.5350503104
C        1.0123001022    0.5381178766    3.1664237423
C       -6.1340797292   -2.0157991302   -0.7311157270
C        0.0548872551   -0.0752115865    2.1358454094
N       -2.1833320842   -1.4068939854   -0.8217029966
N       -3.5141671804   -1.5671058203   -0.7815488182
N        0.4945235701   -1.0823515971   -1.5478970051
O       -5.6259032178   -0.7275920047   -0.3376467846
H       -1.9518971402    1.7931385847    0.2256305103
H       -4.4484435743    1.4899076972    0.3040149587
H        0.1575772256    1.9016602362    0.1216892686
H        1.5641138682    1.1803634770   -0.7962856309
H        1.5819546916   -0.7886830689    0.7192216119
H        1.9256808069   -0.0597315709    3.2607657094
H        0.5466223365    0.5962673823    4.1561893780
H        1.3091834826    1.5504450992    2.8705013742
H       -7.2162932111   -1.9376978921   -0.6225485398
H       -5.7370726921   -2.8028066124   -0.0847668918
H       -5.8648665014   -2.2386384159   -1.7667681920
H       -0.8630088128    0.5207646107    2.0962975675
H       -0.2488867851   -1.0780669445    2.4621088142
H        0.2181475529   -0.7400994997   -2.4691449661
H        0.0824587002   -2.0124708437   -1.4702976387
29   
torsion grid (-135,)
C       -2.3967136026    0.9300784682   -0.3072725577
C       -3.7625644818    0.7652198541   -0.2644240312
C       -1.5856230856   -0.2114371626   -0.4987069593
C       -4.2446086774   -0.5511957770   -0.4160242320
C        0.6977071504    1.0415912621   -0.1303802952
C        0.6988971958   -0.1921831873    0.7458555295
C       -0.0812940341   -0.1834510014   -0.5609520585
C        0.9402099522    0.3644062919    3.2006437645
C       -6.0640696002   -2.0793154929   -0.5251005723
C        0.0204315850   -0.1803141500    2.1001129563
N       -2.1226085600   -1.4251315012   -0.6494776484
N       -3.4504548739   -1.5990792524   -0.6086972681
N        0.5340742536   -0.9590267476   -1.6237846367
O       -5.5838814196   -0.7313920898   -0.3663515473
H       -1.9537039311    1.9156399445   -0.2094883299
H       -4.4565780335    1.5890333628   -0.1288624932
H        0.1604832181    1.9110805536    0.2379784054
H        1.5874520755    1.2675106079   -0.7088246820
H        1.6008207535   -0.7974794705    0.6883915095
H        1.8469931505   -0.2437951795    3.2932148030
H        0.4378634284    0.3661774533    4.1740603221
H        1.2520885795    1.3908284616    2.9774495596
H       -7.1493586494   -2.0027172345   -0.4519891578
H       -5.6688982312   -2.7266452268    0.2619817038
H       -5.7700182493   -2.4834428898   -1.4971493339
H       -0.8935009720    0.4234404230    2.0584997623
H       -0.2999976517   -1.1991593435    2.3520481355
H        0.2438606705   -0.5784051166   -2.5252823495
H        0.1532907314   -1.9048680555   -1.5819034778
29   
torsion grid (-120,)
C       -2.4148413670    0.9726175371   -0.5513826559
C       -3.7807874082    0.8021137982   -0.5161005856
C       -1.5929194974   -0.1748901629   -0.5059078123
C       -4.2475756629   -0.5260958276   -0.4370188404
C        0.6603187061    1.0913136154   -0.0759057929
C        0.6903468140   -0.1906026779    0.7318203264
C       -0.0898178724   -0.1290601039   -0.5664666195
C        0.9090549455    0.2161874858    3.2187464247
C       -6.0521126717   -2.0716005231   -0.3145051402
C        0.0027776141   -0.2672912615    2.0795230097
N       -2.1131755794   -1.4036489385   -0.4455798058
N       -3.4405016380   -1.5825638116   -0.4116020197
N        0.5273042779   -0.8359402819   -1.6763581385
O       -5.5862206898   -0.7114901159   -0.3919859286
H       -1.9746236239    1.9624888972   -0.6209782858
H       -4.4853198068    1.6274356313   -0.5515740646
H        0.0970039984    1.9225001819    0.3402892416
H        1.5452144153    1.3713501259   -0.6379897456
H        1.6090783469   -0.7671315914    0.6487142626
H        1.8194706067   -0.3904159127    3.2829663603
H        0.3984527175    0.1556520048    4.1859735670
H        1.2154278597    1.2564016859    3.0610905210
H       -7.1395572079   -1.9960056853   -0.2858106594
H       -5.6750389834   -2.5595445789    0.5878954548
H       -5.7276221534   -2.6427587007   -1.1880711177
H       -0.9149771317    0.3324483805    2.0641350180
H       -0.3142966655   -1.3011656117    2.2639819138
H        0.1949123818   -0.4414897687   -2.5569257126
H        0.2039336096   -1.8037005967   -1.6543256549
29   
torsion grid (-105,)
C       -2.4229810015    0.9675425531   -0.7689148551
C       -3.7880399935    0.7893321682   -0.7650423522
C       -1.5981741001   -0.1457549410   -0.4939923555
C       -4.2489544606   -0.5143337052   -0.4851498678
C        0.6221360303    1.1354353740    0.0044621598
C        0.6895346963   -0.1893685308    0.7412287956
C       -0.0965453869   -0.0792907967   -0.5446088913
C        0.9151594756    0.0978003148    3.2433922342
C       -6.0481049958   -2.0414118469   -0.1847029394
C        0.0131279023   -0.3515348606    2.0871421826
N       -2.1108268792   -1.3544182914   -0.2513245986
N       -3.4386818558   -1.5407728987   -0.2451525032
N        0.5263468429   -0.7006883760   -1.7030266432
O       -5.5871067652   -0.7074022061   -0.4695148826
H       -1.9796050071    1.9372110861   -0.9763979209
H       -4.4958238210    1.5880632381   -0.9648578836
H        0.0291029103    1.9228138200    0.4636621880
H        1.4970332060    1.4726128048   -0.5419142415
H        1.6250741516   -0.7324533811    0.6260953712
H        1.8410612750   -0.4878811208    3.2722304501
H        0.4130804403   -0.0240454526    4.2093165686
H        1.1942315183    1.1521222259    3.1366187143
H       -7.1361223028   -1.9769395362   -0.2182332003
H       -5.7105631523   -2.3652898109    0.8030901566
H       -5.6796922344   -2.7468513929   -0.9338524330
H       -0.9192667057    0.2249882479    2.1052763448
H       -0.2785245824   -1.4001755780    2.2198169954
H        0.1752619999   -0.2653527584   -2.5565214900
H        0.2415920719   -1.6802250957   -1.7359467151
29   
torsion grid (-90,)
C       -2.4324209302    0.9099934254   -0.9796990236
C       -3.7943337203    0.7203126113   -1.0127145750
C       -1.6181148045   -0.1339064357   -0.4828242081
C       -4.2635687582   -0.5256518850   -0.5428281782
C        0.5667323193    1.1679133713    0.0835831277
C        0.6837563510   -0.1911189167    0.7503753168
C       -0.1178996083   -0.0430023478   -0.5187467310
C        0.9525949479    0.0037196184    3.2545473162
C       -6.0712478626   -2.0013668695   -0.0819798689
C        0.0411919902   -0.4342714740    2.1010802235
N       -2.1359456091   -1.2922721008   -0.0702310447
N       -3.4642397127   -1.4878445094   -0.0952066374
N        0.5136158393   -0.5661895052   -1.7217058420
O       -5.6002561416   -0.7279852786   -0.5615620410
H       -1.9800913580    1.8394288533   -1.3154356213
H       -4.4944673652    1.4674870409   -1.3738428045
H       -0.0533559010    1.9083251067    0.5838305324
H        1.4244380039    1.5625641199   -0.4518554718
H        1.6360721685   -0.6942781138    0.5972386394
H        1.9004571518   -0.5465126751    3.2403903759
H        0.4775812790   -0.1755913439    4.2252136341
H        1.1894290023    1.0714798895    3.1850876584
H       -7.1563645058   -1.9555011122   -0.1792918219
H       -5.7827788285   -2.1530386521    0.9612333002
H       -5.6633801776   -2.8170021033   -0.6844378413
H       -0.9109708157    0.1047308270    2.1612004909
H       -0.2092361981   -1.4967887473    2.1965724155
H        0.1514763733   -0.0804238021   -2.5425850367
H        0.2620436916   -1.5497463895   -1.8260265673
29   
torsion grid (-75,)
C       -2.4316392455    0.8383664218   -1.1973076731
C       -3.7872901441    0.6269154848   -1.2684711174
C       -1.6366613544   -0.0924596785   -0.4846154253
C       -4.2739738744   -0.5283711891   -0.6161535232
C        0.5001807073    1.2349736338    0.1890462883
C        0.6690396100   -0.1549762720    0.7755003650
C       -0.1384241856    0.0335199949   -0.4843167947
C        0.9871332755   -0.0712195213    3.2755910799
C       -6.0958110939   -1.9286544229   -0.0031961139
C        0.0633405965   -0.4896328349    2.1243179770
N       -2.1685263726   -1.1713744231    0.0890432575
N       -3.4951875730   -1.3858235089    0.0311989866
N        0.5222221446   -0.3765445323   -1.7165976732
O       -5.6064616387   -0.7504888147   -0.6711405970
H       -1.9687342678    1.7067822615   -1.6595035374
H       -4.4713726482    1.2919262729   -1.7867682647
H       -0.1527987766    1.9183015259    0.7270804809
H        1.3401473927    1.6947090834   -0.3225261808
H        1.6396088292   -0.6091686697    0.5873750090
H        1.9547409597   -0.5826333537    3.2132218199
H        0.5437406332   -0.3148305789    4.2472425829
H        1.1815403142    1.0071440853    3.2528590822
H       -7.1742360162   -1.9167949690   -0.1641083149
H       -5.8636981363   -1.8929000620    1.0642188108
H       -5.6507890885   -2.8299595523   -0.4323061787
H       -0.9062916350    0.0074205303    2.2311843940
H       -0.1447244319   -1.5636795725    2.1740045209
H        0.1694178303    0.1695737841   -2.5025045621
H        0.3005198385   -1.3535797307   -1.9101000729
29   
torsion grid (-60,)
C       -2.4346790829    0.6558435814   -1.4153475067
C       -3.7830176943    0.4122614010   -1.4977457537
C       -1.6583404536   -0.1082825692   -0.5065728293
C       -4.2865784840   -0.6067385874   -0.6568944533
C        0.4093370249    1.2657836910    0.2826492172
C        0.6548322073   -0.1448923981    0.7808758847
C       -0.1651324791    0.0740008820   -0.4693605851
C        1.0569184725   -0.1901514644    3.2640882596
C       -6.1196993227   -1.8958481823    0.1375762691
C        0.1081320924   -0.5865959014    2.1250040130
N       -2.2050558988   -1.0672255640    0.2376844898
N       -3.5280085882   -1.3100798188    0.1718235122
N        0.5355689464   -0.2118230174   -1.7151335616
O       -5.6132892259   -0.8584312659   -0.7230869022
H       -1.9677183746    1.4322945974   -2.0161791323
H       -4.4504053983    0.9559617268   -2.1594222015
H       -0.2840392069    1.8742112004    0.8582017352
H        1.2187418531    1.8049156034   -0.2003505349
H        1.6461450356   -0.5308363135    0.5524206106
H        2.0439916017   -0.6504925573    3.1382117917
H        0.6625300424   -0.5085518674    4.2352607567
H        1.2010283233    0.8959002351    3.2971906066
H       -7.1901980488   -1.9342809314   -0.0663670721
H       -5.9344975121   -1.6526093321    1.1869239991
H       -5.6475284202   -2.8543292953   -0.0923759521
H       -0.8784315291   -0.1464601967    2.2932594155
H       -0.0471134250   -1.6704838905    2.1200762407
H        0.1976430156    0.3909557369   -2.4643107735
H        0.3552478483   -1.1746849240   -1.9994662502
29   
torsion grid (-45,)
C       -2.4674162976    0.3556998133   -1.5974344956
C       -3.8088402457    0.0729949373   -1.6673879657
C       -1.7099381527   -0.1836947245   -0.5245334055
C       -4.3295172881   -0.7557245946   -0.6480563419
C        0.2579725567    1.2559817627    0.3958736295
C        0.6074836637   -0.1607965810    0.7939590504
C       -0.2292755041    0.0835196634   -0.4492112050
C        1.1288425880   -0.3838200257    3.2395277694
C       -6.1702546220   -1.8913548963    0.3389273723
C        0.1418172752   -0.7368548285    2.1183209228
N       -2.2756452335   -0.9680514787    0.3901506944
N       -3.5911606124   -1.2482259351    0.3356567555
N        0.5163767897   -0.0662054825   -1.6913342187
O       -5.6488604334   -1.0469242571   -0.7041071836
H       -1.9986638959    0.9947215497   -2.3402765885
H       -4.4583297476    0.4518579536   -2.4506450314
H       -0.4867494012    1.7642434187    1.0030059618
H        1.0215022664    1.8922895661   -0.0421899073
H        1.6194531360   -0.4527635346    0.5209440811
H        2.1298414917   -0.7801632999    3.0314009543
H        0.7995246981   -0.7979320070    4.1988180790
H        1.2212524285    0.7023397264    3.3548728118
H       -7.2314592712   -1.9980517860    0.1119243932
H       -6.0293630577   -1.4279792154    1.3187713322
H       -5.6738543515   -2.8650868277    0.3330523834
H       -0.8552895196   -0.3679585315    2.3646309641
H        0.0428280685   -1.8245618947    2.0325373599
H        0.2134153752    0.6097014665   -2.3899245659
H        0.3744187216   -0.9974753032   -2.0805320131
29   
torsion grid (-30,)
C       -2.1736477814   -0.6585464122   -1.8037349244
C       -3.5305024152   -0.5448773746   -1.9876132257
C       -1.6292149632   -0.3633775766   -0.5263614005
C       -4.2865025206   -0.1358646560   -0.8683677375
C        0.6138659377    0.8700039957   -0.0415265254
C        0.5263937491   -0.1709505021    1.0469953044
C       -0.1409089214   -0.4297237621   -0.3033267055
C        0.8892669829    0.6778003398    3.3789279907
C       -6.3834398951    0.3982216893    0.1170615239
C       -0.1332099327    0.1096271874    2.3845517609
N       -2.4150678442    0.0301157238    0.4750737146
N       -3.7431879068    0.1433587578    0.3081830283
N        0.6052957805   -1.3815966530   -1.1108516264
O       -5.6251285341   -0.0278375683   -1.0299416798
H       -1.5337461873   -0.9669649826   -2.6241335785
H       -4.0207318392   -0.7491083607   -2.9346564750
H        0.0019345555    1.7594152482    0.0818129399
H        1.5493426643    1.0103827186   -0.5757271307
H        1.4230603492   -0.7815965288    1.1290947991
H        1.7191645055   -0.0192941080    3.5460279613
H        0.4232052408    0.8801392369    4.3495130005
H        1.3160863929    1.6170202543    3.0084059555
H       -7.4196953522    0.4206931996   -0.2217385389
H       -6.0632724688    1.3901114106    0.4463785194
H       -6.2628297247   -0.3056126294    0.9445760610
H       -0.9694156975    0.7972387478    2.2623507462
H       -0.5627185684   -0.8178158883    2.7829484279
H        0.5956452180   -1.1292064026   -2.0972202462
H        0.2145362730   -2.3179293925   -1.0204580727
29   
torsion grid (-15,)
C       -2.1742410790   -0.9020856234   -1.7159374823
C       -3.5383880923   -0.8263653812   -1.8750327268
C       -1.5892417793   -0.3359890153   -0.5546252051
C       -4.2588405439   -0.1739616898   -0.8541431577
C        0.5753690206    0.9971166375    0.0021151319
C        0.5674570434   -0.1310753747    0.9996875921
C       -0.0948095851   -0.3198759714   -0.3714880270
C        0.8174570427    0.5865506779    3.3930880584
C       -6.3230086408    0.5732246570    0.0594000308
C       -0.1192284199   -0.0364915101    2.3480844977
N       -2.3442626846    0.2999765693    0.3444654922
N       -3.6756466117    0.3716390119    0.2053834705
N        0.6978071331   -1.1783374797   -1.2327098878
O       -5.6034495832   -0.1039072950   -0.9871584114
H       -1.5632394770   -1.3928070235   -2.4659605258
H       -4.0576812781   -1.2341141812   -2.7370049714
H       -0.0988405767    1.8268249740    0.1935751615
H        1.4973840822    1.2395197846   -0.5182151142
H        1.5031681532   -0.6855482350    1.0286380200
H        1.7373377104    0.0012088154    3.5103020647
H        0.3308297491    0.6438182568    4.3729268907
H        1.1064014736    1.6025602225    3.1011929830
H       -7.3713367574    0.5155555701   -0.2352951965
H       -6.0014205959    1.6148357050    0.1398621559
H       -6.1649751903    0.0785738304    1.0212960354
H       -1.0380354029    0.5433140370    2.2668061907
H       -0.4139377392   -1.0431172398    2.6734462375
H        0.6135293281   -0.9129912672   -2.2126537722
H        0.4129082725   -2.1516789683   -1.1403257705
29   
torsion grid (0,)
C       -2.1694366050   -1.0529160830   -1.5746813308
C       -3.5397168404   -1.0183703575   -1.6954422849
C       -1.5543977301   -0.2675391334   -0.5681587483
C       -4.2337355833   -0.1844736046   -0.7960974502
C        0.5826038044    1.0830303886    0.0437252091
C        0.5993684295   -0.1099673636    0.9616620025
C       -0.0581150668   -0.2174856105   -0.4212776758
C        0.7286084959    0.4831792966    3.4025489691
C       -6.2755693697    0.7139222726    0.0272096677
C       -0.1307761038   -0.1321246379    2.2889893470
N       -2.2873877023    0.5251919242    0.2202406181
N       -3.6229628345    0.5586507461    0.1183944049
N        0.7433067581   -0.9989682709   -1.3425557047
O       -5.5828367550   -0.1471605998   -0.8946934835
H       -1.5772822844   -1.6755939537   -2.2367132322
H       -4.0828970643   -1.5910073791   -2.4410416504
H       -0.1067585547    1.8847322170    0.2894439002
H        1.5011502311    1.3714789223   -0.4578665492
H        1.5477300973   -0.6438536853    0.9702949307
H        1.6761754083   -0.0552445397    3.5230223260
H        0.2046908093    0.4574327138    4.3642475695
H        0.9672886009    1.5283825106    3.1767552605
H       -7.3322244919    0.5958785323   -0.2151550770
H       -5.9634012718    1.7533022142   -0.1034995005
H       -6.0809028172    0.4130321053    1.0599454773
H       -1.0763764826    0.4057800068    2.2068437240
H       -0.3777608778   -1.1707532061    2.5472793360
H        0.5691874582   -0.7341712121   -2.3109535034
H        0.5537226987   -1.9945699904   -1.2440050007
29   
torsion grid (15,)
C       -2.1500768208   -1.1836461008   -1.4255425819
C       -3.5231696860   -1.2057022334   -1.5061162206
C       -1.5328324094   -0.2171002742   -0.5935516924
C       -4.2170753754   -0.2447484446   -0.7425672065
C        0.5799957916    1.1458189951    0.0716387143
C        0.6168776598   -0.0999449748    0.9172540172
C       -0.0368809052   -0.1337153604   -0.4695892162
C        0.6504886573    0.3955516886    3.3865323307
C       -6.2627703034    0.7354195676   -0.0289339546
C       -0.1471058140   -0.2058271697    2.2209418568
N       -2.2663706779    0.6703463549    0.0850401959
N       -3.6053892245    0.6533608936    0.0191802450
N        0.7701144893   -0.8279136055   -1.4537793244
O       -5.5685027255   -0.2540464798   -0.8102878557
H       -1.5558041350   -1.8950039753   -1.9894917943
H       -4.0696801967   -1.9142369052   -2.1210570336
H       -0.1172981772    1.9233840825    0.3654061722
H        1.4947088850    1.4707855348   -0.4135021416
H        1.5736308240   -0.6191561646    0.9129437630
H        1.6141087107   -0.1110257604    3.5162012265
H        0.0979140350    0.3099614130    4.3284912453
H        0.8545196885    1.4572729841    3.2100672887
H       -7.3210328225    0.5564447228   -0.2219025415
H       -5.9788930617    1.7441540843   -0.3398769596
H       -6.0391077396    0.6167321361    1.0344584190
H       -1.1089695812    0.3042023033    2.1323262962
H       -0.3641427351   -1.2621336277    2.4297443202
H        0.5310092910   -0.5376064162   -2.4007950776
H        0.6522671214   -1.8371633875   -1.3899888056
29   
torsion grid (30,)
C       -2.1610472571   -1.2936056273   -1.2328906706
C       -3.5338486461   -1.3545653603   -1.2674002215
C       -1.5443172377   -0.1777240180   -0.6141435864
C       -4.2278767555   -0.2787845619   -0.6733918491
C        0.5660303975    1.1790300774    0.0718876551
C        0.6229539636   -0.1123610915    0.8486266705
C       -0.0470184641   -0.0729038606   -0.5265281866
C        0.6311316089    0.2628669749    3.3426803783
C       -6.2756845980    0.7817435342   -0.0943234036
C       -0.1491774740   -0.2862119715    2.1405122126
N       -2.2757551277    0.7990506347   -0.0733517562
N       -3.6172484668    0.7490023506   -0.0988862394
N        0.7403283000   -0.6921565524   -1.5762769323
O       -5.5797265900   -0.3207807480   -0.7044680296
H       -1.5631012771   -2.0870930802   -1.6702391037
H       -4.0815028887   -2.1756756837   -1.7197899295
H       -0.1267161293    1.9386289741    0.4172286869
H        1.4730472435    1.5318508333   -0.4075757591
H        1.5835414506   -0.6240069363    0.8191412815
H        1.5940752522   -0.2476410066    3.4602771438
H        0.0674907693    0.1329179327    4.2729149061
H        0.8349048408    1.3317336497    3.2169950386
H       -7.3342513517    0.5556237255   -0.2263990873
H       -6.0174355039    1.7229414602   -0.5864444879
H       -6.0265519202    0.8574710050    0.9672881194
H       -1.1133594131    0.2245710446    2.0683691183
H       -0.3656009517   -1.3516931716    2.2970422335
H        0.4425593946   -0.3674606075   -2.4949839167
H        0.6609371978   -1.7069611710   -1.5582909133
29   
torsion grid (45,)
C       -2.1382665486   -1.3682321926   -0.9797017647
C       -3.5086240174   -1.4582591905   -0.9924887076
C       -1.5406736621   -0.1405314116   -0.5983085881
C       -4.2182457461   -0.2950850457   -0.6187924135
C        0.5631737031    1.2131404012    0.1050247585
C        0.6518470129   -0.1223047387    0.8063548731
C       -0.0431344198   -0.0089518686   -0.5476301016
C        0.6654885293    0.1206450273    3.3201928340
C       -6.2832837203    0.8238431321   -0.2489516146
C       -0.1100811791   -0.3738395900    2.0920089513
N       -2.2822294998    0.9095095352   -0.2476250308
N       -3.6251194751    0.8338505770   -0.2566302193
N        0.7166319350   -0.5496944324   -1.6616220137
O       -5.5687533597   -0.3645803435   -0.6362621566
H       -1.5241194908   -2.2238914589   -1.2459916536
H       -4.0447954743   -2.3621332212   -1.2650532147
H       -0.1289011020    1.9464821068    0.5040468389
H        1.4581910060    1.6049366938   -0.3665034741
H        1.6194922104   -0.6168719447    0.7409600953
H        1.6342647585   -0.3844977323    3.4082916690
H        0.1060380165   -0.0644621453    4.2435795441
H        0.8573434468    1.1967227206    3.2498009882
H       -7.3378379190    0.5586796392   -0.3307489279
H       -6.0410961600    1.6556672355   -0.9153198533
H       -6.0346528401    1.1080526812    0.7767587537
H       -1.0822922234    0.1274502145    2.0504054200
H       -0.3157893210   -1.4481713795    2.1935261804
H        0.3960332346   -0.1434077173   -2.5396270789
H        0.6121210711   -1.5602986276   -1.7316094411
29   
torsion grid (60,)
C       -2.1397982202   -1.3757739098   -0.6752184895
C       -3.5074227110   -1.4947888014   -0.6881358693
C       -1.5711789396   -0.0839407298   -0.5429607424
C       -4.2408030836   -0.2918664523   -0.5698859562
C        0.5272868362    1.2685020955    0.1675024416
C        0.6663546918   -0.1096160376    0.7793674703
C       -0.0761840343    0.0788275602   -0.5355510232
C        0.7477934135   -0.0175102569    3.3045945896
C       -6.3300693782    0.8383027247   -0.4622491631
C       -0.0519045954   -0.4520626447    2.0694709394
N       -2.3309692980    1.0023231539   -0.4233695980
N       -3.6733543165    0.8990344511   -0.4377603288
N        0.6392084566   -0.3742141628   -1.7184866295
O       -5.5892500547   -0.3899035421   -0.5896449200
H       -1.5001706712   -2.2519099316   -0.7467982058
H       -4.0252397940   -2.4451093774   -0.7747809803
H       -0.1625883327    1.9631066904    0.6350737304
H        1.3991478947    1.7122453547   -0.3015413939
H        1.6425134829   -0.5750904723    0.6558995895
H        1.7266484842   -0.5095427147    3.3355996063
H        0.2175175781   -0.2676981141    4.2298572594
H        0.9203308705    1.0640401183    3.2936520410
H       -7.3784547730    0.5409764125   -0.5015700885
H       -6.0908796121    1.5212702842   -1.2813276524
H       -6.1029646755    1.3305214529    0.4868097380
H       -1.0351475188    0.0308959744    2.0844125648
H       -0.2383674724   -1.5339012574    2.1131152479
H        0.2946441775    0.1220843099   -2.5400067742
H        0.4861101445   -1.3688386508   -1.8802658344
29   
torsion grid (75,)
C       -2.1453229785   -1.3342925814   -0.4039402322
C       -3.5137372398   -1.4480239031   -0.4343119614
C       -1.5708100343   -0.0429043865   -0.5023725540
C       -4.2376859705   -0.2415073189   -0.5683433147
C        0.5438036635    1.2707786793    0.2285841711
C        0.7169614960   -0.1437066971    0.7454375589
C       -0.0764045901    0.1205225069   -0.5218648071
C        0.9017354563   -0.1697641450    3.2670550811
C       -6.3185301770    0.8983877172   -0.7326309942
C        0.0598384329   -0.5627334065    2.0460255631
N       -2.3215562779    1.0506748852   -0.6163500490
N       -3.6631041857    0.9513896251   -0.6530037202
N        0.5909577240   -0.2386277905   -1.7651981126
O       -5.5859871109   -0.3347101474   -0.6044745557
H       -1.5072501838   -2.2073496968   -0.2928183045
H       -4.0385899032   -2.3951063908   -0.3547525755
H       -0.1315036696    1.9273227591    0.7682964639
H        1.3924856118    1.7554465514   -0.2425568149
H        1.6922296289   -0.5886124106    0.5575550054
H        1.8905611781   -0.6410328162    3.2331480460
H        0.4163381029   -0.4755443278    4.2001927915
H        1.0522364343    0.9145324376    3.3012299698
H       -7.3682983647    0.6034092426   -0.7397726428
H       -6.0545960528    1.4108225812   -1.6611954704
H       -6.1090857159    1.5622156302    0.1099902188
H       -0.9318767711   -0.1029552682    2.1249102745
H       -0.1034991036   -1.6491050465    2.0475840271
H        0.2252415068    0.3403935106   -2.5213769317
H        0.3920127208   -1.2086129515   -2.0101947361
29   
torsion grid (90,)
C       -2.2072292454   -1.2830978137   -0.1296526553
C       -3.5764594662   -1.3998706926   -0.1734561509
C       -1.6259468918   -0.0310469487   -0.4420651854
C       -4.2916549550   -0.2384127276   -0.5383161328
C        0.4902048913    1.2704604216    0.3097591720
C        0.7233792091   -0.1690842264    0.7257049641
C       -0.1339133309    0.1515319316   -0.4847249809
C        1.0574616941   -0.2830711407    3.2274892366
C       -6.3618437127    0.8547429219   -0.9590214717
C        0.1621999166   -0.6701448972    2.0427772564
N       -2.3706640871    1.0242156702   -0.7720160823
N       -3.7088844016    0.9201224646   -0.8256978083
N        0.4907025719   -0.0919367085   -1.7784004172
O       -5.6391992292   -0.3347532330   -0.5897009069
H       -1.5758729532   -2.1244191240    0.1409911872
H       -4.1064260347   -2.3187462252    0.0580170367
H       -0.1744287416    1.8689094374    0.9260975050
H        1.3005283977    1.8134905021   -0.1655033742
H        1.6994047057   -0.5709860786    0.4616528386
H        2.0629206463   -0.7043137268    3.1159405062
H        0.6440164549   -0.6475359966    4.1740919617
H        1.1598410904    0.8050664588    3.2969871856
H       -7.4126907234    0.5643609704   -0.9372915028
H       -6.0736929100    1.1881159020   -1.9592171586
H       -6.1687874941    1.6615623913   -0.2475091039
H       -0.8430482748   -0.2624585083    2.1992232864
H        0.0517660357   -1.7626067212    2.0128899785
H        0.0851346170    0.5477680739   -2.4623065678
H        0.2793605237   -1.0377084931   -2.0977831796
29   
torsion grid (105,)
C       -2.2771202250   -1.2014205601    0.0932490468
C       -3.6476474274   -1.3121201885    0.0302472772
C       -1.6725422470   -0.0257106145   -0.4079933063
C       -4.3393183592   -0.2251721370   -0.5435635493
C        0.4273450047    1.2716524091    0.4024200596
C        0.7205483438   -0.1804128045    0.7208757617
C       -0.1816483380    0.1785870479   -0.4456283896
C        1.1982800997   -0.4014945763    3.1883025476
C       -6.3827819955    0.8000472447   -1.2000778946
C        0.2480581994   -0.7651331802    2.0391653309
N       -2.3982789246    0.9596180397   -0.9413079525
N       -3.7332738141    0.8598301246   -1.0154314237
N        0.4283962999    0.0539690692   -1.7628363206
O       -5.6868017091   -0.3142939509   -0.6108461827
H       -1.6677848168   -1.9974612771    0.5076692898
H       -4.1933005229   -2.1782558989    0.3919641794
H       -0.2365714290    1.8041291455    1.0779242783
H        1.2003990999    1.8738316004   -0.0636914357
H        1.6991676025   -0.5299917784    0.3987789764
H        2.2087434755   -0.7805100645    2.9985329639
H        0.8537251395   -0.8248019324    4.1379592707
H        1.2683076599    0.6851474362    3.3048711641
H       -7.4382090508    0.5299320873   -1.1533637868
H       -6.0678639648    0.9497541817   -2.2359358761
H       -6.1932878274    1.7170153898   -0.6363151273
H       -0.7581743728   -0.4003375515    2.2742255886
H        0.1756201259   -1.8584966957    1.9637123179
H       -0.0188829109    0.7275246405   -2.3857212742
H        0.2366347081   -0.8715937023   -2.1475579373
29   
torsion grid (120,)
C       -2.3724084298   -1.0948094129    0.3024783551
C       -3.7445308369   -1.1885678299    0.2259934888
C       -1.7308980841   -0.0347422196   -0.3770228079
C       -4.4026330101   -0.2046045640   -0.5383263513
C        0.3532924009    1.2542311439    0.4947986575
C        0.6996607509   -0.2011591124    0.7253084939
C       -0.2401412215    0.1860058001   -0.4032615836
C        1.3500597180   -0.5649788536    3.1307481282
C       -6.4096037340    0.7294869195   -1.4090790534
C        0.3147768251   -0.8615474264    2.0368958592
N       -2.4284363793    0.8516217077   -1.0939558713
N       -3.7617294719    0.7675833130   -1.1808765302
N        0.3649044381    0.1619833985   -1.7284492054
O       -5.7506217666   -0.2763303491   -0.6171915360
H       -1.7957992771   -1.8294366964    0.8513509118
H       -4.3139258701   -1.9746305984    0.7124782750
H       -0.3108367197    1.7215934236    1.2172032386
H        1.0898497948    1.9106964186    0.0430258168
H        1.6770933244   -0.4988515729    0.3516790931
H        2.3401479455   -0.9393881188    2.8477655929
H        1.0714002747   -1.0361297405    4.0794478449
H        1.4386583608    0.5135761986    3.2986905806
H       -7.4717226744    0.4928042574   -1.3386262358
H       -6.0726725399    0.6870976236   -2.4479955998
H       -6.2093451860    1.7279849847   -1.0122279278
H       -0.6662519627   -0.5044393826    2.3686804504
H        0.2304991999   -1.9489272813    1.9064250218
H       -0.1291963617    0.8410207482   -2.3085902826
H        0.2092744576   -0.7506992526   -2.1579271118
29   
torsion grid (135,)
C       -2.4457150048   -0.8916599116    0.5178456216
C       -3.8168320969   -0.9818148064    0.4223743638
C       -1.7673110167    0.0107146002   -0.3331869849
C       -4.4419271644   -0.1529009766   -0.5297286186
C        0.3045389659    1.2907822023    0.5917804199
C        0.6978692215   -0.1616525886    0.7409087757
C       -0.2768234417    0.2483336626   -0.3519119840
C        1.5462783790   -0.7262453916    3.0391618249
C       -6.4118324326    0.6262467847   -1.6110493468
C        0.4006345522   -0.9027728870    2.0325664382
N       -2.4370918558    0.7485766487   -1.2249545311
N       -3.7691032600    0.6697964869   -1.3279653788
N        0.3263303193    0.2980548411   -1.6767517987
O       -5.7888480096   -0.2214187201   -0.6281009423
H       -1.9031104410   -1.5211075728    1.2103798107
H       -4.4089524602   -1.6573169931    1.0321835179
H       -0.3587543459    1.6965284529    1.3516278182
H        1.0072089253    1.9950048736    0.1581446835
H        1.6693683743   -0.4072161514    0.3172824792
H        2.4867455324   -1.1209293884    2.6390233922
H        1.3343511084   -1.2501700210    3.9773182678
H        1.7011625900    0.3335263251    3.2681015660
H       -7.4793077841    0.4210035144   -1.5248368010
H       -6.0521646369    0.3852123809   -2.6146649472
H       -6.2031750697    1.6788621733   -1.4032958714
H       -0.5234327433   -0.5283647649    2.4853428530
H        0.2533692653   -1.9734441514    1.8367038447
H       -0.2176517192    0.9537213545   -2.2387078334
H        0.2208047898   -0.6122924928   -2.1262701594
29   
torsion grid (150,)
C       -2.5491194492   -0.6072538050    0.7249260205
C       -3.9153893997   -0.7158854089    0.6024864316
C       -1.8304238500    0.0838934531   -0.2802072231
C       -4.5027092949   -0.1165233771   -0.5297729425
C        0.2506928986    1.3164660564    0.7024767357
C        0.6512299023   -0.1379129528    0.7693174002
C       -0.3394511042    0.3225334782   -0.2934738863
C        1.6518699181   -0.9985837919    2.9077823532
C       -6.4298017773    0.4097659442   -1.8196582477
C        0.4034918869   -0.9732692400    2.0141575061
N       -2.4667300447    0.6072165932   -1.3333671933
N       -3.7971695122    0.5134757714   -1.4609751978
N        0.2696575938    0.4127452171   -1.6116756915
O       -5.8460906854   -0.2065232971   -0.6569669400
H       -2.0438877348   -1.0603995060    1.5661399502
H       -4.5324788098   -1.2399708023    1.3258877232
H       -0.4094054581    1.6767748444    1.4879046715
H        0.9442174800    2.0475876731    0.2995103377
H        1.6118568342   -0.3499329459    0.3049019391
H        2.5033053765   -1.4456263864    2.3830141148
H        1.4754405638   -1.5809089369    3.8184040760
H        1.9384296543    0.0164535747    3.2032813371
H       -7.5009005639    0.2265605816   -1.7287441212
H       -6.0373598779   -0.0403700721   -2.7351347533
H       -6.2217904233    1.4827384785   -1.8351345167
H       -0.4268745926   -0.5626738159    2.5975323058
H        0.1302512553   -2.0011742437    1.7415009644
H       -0.3018808294    1.0425279216   -2.1755664456
H        0.1980451109   -0.4978400401   -2.0675980013
29   
torsion grid (165,)
C       -2.6014113441   -0.1587821780    0.8854910759
C       -3.9581447752   -0.3269487317    0.7479379636
C       -1.8493816924    0.2619497679   -0.2408864617
C       -4.5075676180   -0.0600777110   -0.5237931871
C        0.2679122245    1.3934392050    0.8015812977
C        0.6096335837   -0.0757382290    0.7889851497
C       -0.3587509327    0.4864155380   -0.2526182041
C        1.5994774689   -1.3520330463    2.7183520674
C       -6.3894320173    0.0642699640   -1.9710799199
C        0.3131477054   -1.0076739134    1.9537822652
N       -2.4500439813    0.4837421400   -1.4136373541
N       -3.7763249943    0.3315881818   -1.5574333817
N        0.2637852085    0.5844796583   -1.5607692301
O       -5.8429701856   -0.2181947820   -0.6697204812
H       -2.1297340053   -0.3403764235    1.8414056583
H       -4.5980291710   -0.6500924623    1.5632961624
H       -0.3833796391    1.7417086189    1.5998215769
H        0.9969404638    2.1145119317    0.4457421362
H        1.5600551002   -0.2949663300    0.3079191805
H        2.3151606474   -1.8712557457    2.0716097467
H        1.3886999469   -2.0012844767    3.5747731954
H        2.0856608886   -0.4443645398    3.0921873870
H       -7.4598553727   -0.1199647224   -1.8742628005
H       -5.9511036062   -0.5931921112   -2.7263357534
H       -6.2004795151    1.1032101117   -2.2533958454
H       -0.3858860499   -0.5450577658    2.6577526988
H       -0.1588380221   -1.9323242828    1.5976047954
H       -0.2762512001    1.2434382254   -2.1222095869
H        0.1492706251   -0.3106897196   -2.0375839642
29   
torsion grid (180,)
C       -2.6385086880    0.2419185266    0.8932483746
C       -3.9889580074    0.0240690275    0.7761668266
C       -1.8691234155    0.4115981938   -0.2875213676
C       -4.5157787761   -0.0139976421   -0.5330316052
C        0.3194541060    1.3606450085    0.8101514550
C        0.5608859113   -0.1202201033    0.6588513347
C       -0.3763906528    0.6051075627   -0.3134381284
C        1.3877935721   -1.4759124893    2.6099863909
C       -6.3705074655   -0.2566565194   -2.0000883139
C        0.1875766521   -1.1488303838    1.7095160598
N       -2.4498850165    0.3647479181   -1.4893168762
N       -3.7722574419    0.1599080501   -1.6154301932
N        0.2343263683    0.7618954200   -1.6195935426
O       -5.8448186651   -0.2313555092   -0.6603003225
H       -2.1870895652    0.3124007982    1.8748036090
H       -4.6424284037   -0.1082479134    1.6329223258
H       -0.2932254376    1.6885568004    1.6462858337
H        1.0989118116    2.0545947043    0.5120340440
H        1.4926567887   -0.3568447993    0.1502310129
H        2.2196960520   -1.8847343919    2.0260106205
H        1.1198944183   -2.2138689907    3.3736755047
H        1.7500499334   -0.5761751268    3.1193311880
H       -7.4384112177   -0.4426927155   -1.8813520023
H       -5.9024159637   -1.0526845521   -2.5848950619
H       -6.1983932445    0.6991491636   -2.5017147704
H       -0.6331912301   -0.8018242800    2.3416819667
H       -0.1668400758   -2.0649652971    1.2198825316
H       -0.2193005613    1.5401470302   -2.0998321220
H       -0.0091532735   -0.0536014180   -2.1821005988
