19   
torsion grid (-45,)
C        1.9959744162   -0.9325131596   -0.1307749238
C        0.8718092362   -0.3784769816    0.4947660708
C        2.9715539910   -1.5699609113    0.6327332431
C        0.7558772675   -0.4769831130    1.8853164445
C        2.8756165652   -1.6547729842    2.0398708141
C        1.7328144094   -1.0999925661    2.6759794247
C        3.9311808838   -2.3663043336    2.7595562498
C        1.5433355610   -1.1607627372    4.1729227975
N        5.0118057439   -2.9349742565    2.1597791156
N        4.2828134834   -2.1510739759    4.0893681925
N        5.4654770291   -3.7126945886    3.1791541267
N        5.4227155734   -2.9292899778    4.2574084263
H        2.1060104511   -0.8747946529   -1.2125522737
H        0.0960572792    0.1147506864   -0.0880521774
H        3.8386472528   -2.0251192691    0.1635103129
H       -0.1192804222   -0.0547341271    2.3782158057
H        1.6561822625   -2.1830069524    4.5475953336
H        2.3127665439   -0.5816329442    4.6907004568
H        0.5516739680   -0.7831291583    4.4493906798
19   
torsion grid (-30,)
C        1.9881500707   -0.9400315083   -0.1223833215
C        0.8658409745   -0.3901659505    0.5093386005
C        2.9756135740   -1.5620761497    0.6386682301
C        0.7634132696   -0.4790635414    1.9010138303
C        2.8910850765   -1.6431908403    2.0465430614
C        1.7505339718   -1.0914423642    2.6886281041
C        3.9693680576   -2.3325104260    2.7618558476
C        1.5648189651   -1.1448188025    4.1867786572
N        5.0170961719   -2.9227777907    2.1295283617
N        4.2605123629   -2.2018370778    4.0918228233
N        5.6154461522   -3.6062196729    3.1246639608
N        5.3933937477   -2.9343717935    4.2597268893
H        2.0895767311   -0.8887216181   -1.2053088007
H        0.0817175081    0.0943258801   -0.0696326352
H        3.8448091139   -2.0080155896    0.1651577209
H       -0.1101531842   -0.0589994754    2.3984230884
H        1.6571596475   -2.1683121193    4.5630960348
H        2.3462125280   -0.5810461607    4.7031413919
H        0.5816040564   -0.7460512563    4.4637746795
19   
torsion grid (-15,)
C        1.9972053988   -0.9497876681   -0.1276482379
C        0.8713590281   -0.3975406012    0.4950596477
C        2.9871140182   -1.5556922087    0.6431622041
C        0.7676191859   -0.4693754603    1.8871592989
C        2.8991134198   -1.6264065616    2.0513597541
C        1.7552106812   -1.0707176520    2.6837898528
C        3.9913327325   -2.2921095717    2.7719961583
C        1.5604404365   -1.1039397730    4.1812551213
N        5.0446304899   -2.8651987328    2.1424098262
N        4.1887073970   -2.2852297758    4.1157258109
N        5.7449492356   -3.4478096388    3.1253647713
N        5.3356871846   -2.9713933116    4.3018952696
H        2.1011793860   -0.9104066493   -1.2107958710
H        0.0864409069    0.0774207426   -0.0907416306
H        3.8629716717   -1.9961517911    0.1770932494
H       -0.1078285458   -0.0459130129    2.3782537847
H        1.6391364909   -2.1227784841    4.5709691916
H        2.3455980844   -0.5435654014    4.6962417995
H        0.5812790146   -0.6872220913    4.4462283221
19   
torsion grid (0,)
C        1.9500001034   -0.9519179027   -0.1145399522
C        0.8366481675   -0.4022521252    0.5320523469
C        2.9551172124   -1.5592935189    0.6352000397
C        0.7613616760   -0.4775687269    1.9257041594
C        2.8916445068   -1.6423511736    2.0440390954
C        1.7623656122   -1.0848060110    2.7011405839
C        4.0044144588   -2.3038407266    2.7397825750
C        1.5954040797   -1.1200006824    4.2020554582
N        5.0654107551   -2.8259833359    2.0799775148
N        4.1259554308   -2.4795843995    4.0758658444
N        5.8521760646   -3.3321578218    3.0394712295
N        5.2928422988   -3.1264059910    4.2336427603
H        2.0341163136   -0.9070962701   -1.1991974813
H        0.0411299600    0.0764147768   -0.0361871697
H        3.8255110953   -1.9908294167    0.1511423196
H       -0.1021638149   -0.0518213506    2.4355109283
H        1.6026885056   -2.1463838095    4.5794360005
H        2.4310062067   -0.6281075676    4.7075188834
H        0.6564522569   -0.6325164869    4.4907504774
19   
torsion grid (15,)
C        1.9809081113   -0.9925432393   -0.1316366783
C        0.8588465853   -0.4304201382    0.4890678641
C        2.9739286526   -1.5893389839    0.6422685296
C        0.7628861350   -0.4820880379    1.8826156934
C        2.8843707279   -1.6567031264    2.0505435564
C        1.7489183620   -1.0826718022    2.6817614689
C        3.9868304663   -2.3002507461    2.7756643777
C        1.5631560522   -1.0925887790    4.1807090528
N        5.0860869099   -2.7914454211    2.1554554997
N        3.9944126815   -2.6372991424    4.0913357898
N        5.8862069218   -3.1854954900    3.1557591704
N        5.1818496120   -3.2479392476    4.2865636141
H        2.0822338523   -0.9629007640   -1.2153438210
H        0.0742343497    0.0425253104   -0.0987772871
H        3.8545198121   -2.0231174711    0.1788669826
H       -0.1050950862   -0.0427087761    2.3729691512
H        1.4906171598   -2.1137563461    4.5649962520
H        2.4272493290   -0.6594150989    4.6923691854
H        0.6598568455   -0.5346078706    4.4551579917
19   
torsion grid (30,)
C        1.9674546803   -0.9911632669   -0.1264673154
C        0.8486630673   -0.4319209376    0.5032211743
C        2.9734813391   -1.5757254768    0.6399433938
C        0.7670523736   -0.4747394386    1.8984292283
C        2.8945673377   -1.6401452984    2.0490234473
C        1.7631821432   -1.0677683516    2.6895263189
C        4.0097824536   -2.2581867883    2.7729393955
C        1.5990530211   -1.0738966312    4.1911090995
N        5.1215526523   -2.7320492903    2.1521062789
N        3.9661363724   -2.7425146270    4.0514075912
N        5.9488833057   -2.9904932540    3.1841266144
N        5.1866454128   -3.3128679684    4.2349601946
H        2.0573055786   -0.9660150142   -1.2113362879
H        0.0560790204    0.0340561784   -0.0793966903
H        3.8555742823   -1.9998861047    0.1702764150
H       -0.0975557873   -0.0358293454    2.3952579948
H        1.5213300389   -2.0937410700    4.5769447189
H        2.4755155189   -0.6477729251    4.6890206314
H        0.7077451023   -0.5040452937    4.4797671398
19   
torsion grid (45,)
C        1.9640720314   -0.9983114403   -0.1339296878
C        0.8442229848   -0.4374184380    0.4932070036
C        2.9749734495   -1.5710365857    0.6348797394
C        0.7650549201   -0.4686806718    1.8894755869
C        2.8944126222   -1.6285176664    2.0444139010
C        1.7627938965   -1.0540250321    2.6829724698
C        4.0147590637   -2.2226720547    2.7727831559
C        1.6047925512   -1.0579818912    4.1847592852
N        5.1168117643   -2.7505759591    2.1756871933
N        3.9368857845   -2.7949456637    4.0400321756
N        5.9466515272   -2.8411860310    3.2503057280
N        5.1958391154   -3.3551430308    4.2248344786
H        2.0519196394   -0.9802493362   -1.2191327140
H        0.0499776231    0.0223579647   -0.0920368077
H        3.8613625814   -1.9906761564    0.1686123961
H       -0.0999699520   -0.0280779153    2.3841812045
H        1.5150781118   -2.0779109137    4.5682789393
H        2.4896658180   -0.6449874686    4.6794264793
H        0.7232756756   -0.4759146777    4.4789267005
