39
-1 1 C16H19O4
C                     6.653421567611    -3.014978384034    -8.534089931203
C                     5.613829685204    -2.099194743915    -8.723754870038
C                     6.605018177952    -3.884797744552    -7.435955904243
C                     4.547491895376    -2.055900290344    -7.817692040650
C                     5.536414636521    -3.844996553794    -6.538225118207
C                     4.491256323158    -2.919886900893    -6.712770051230
C                     2.413411815903    -4.239231803000    -5.734633841385
C                     3.695367808025    -2.599387521729    -4.351941029554
C                     0.218250350907    -4.083203860099     0.143679306934
C                     0.322618040671    -2.581688279733     0.450415247233
C                     0.249171619981    -4.342782363773    -1.369286578167
C                     1.561086741755    -1.959358253092    -0.211793648089
C                     1.484527938841    -3.721605832325    -2.033673656847
C                     1.590366884128    -2.219411815024    -1.727543312240
C                     2.843419359881    -1.594609202574    -2.341167934548
C                     3.318972757748    -2.855254625160    -5.778804141449
O                     3.025081430049    -5.286213322356    -6.011139760926
O                     1.225817756760    -4.017352275405    -5.403561284589
O                     4.618958902251    -3.107902373196    -3.734710942989
O                     2.815770348050    -1.719350707083    -3.773232826673
H                     7.486955188584    -3.054708749714    -9.233233136242
H                     5.631093604859    -1.418765996766    -9.573571956421
H                     7.404724362696    -4.607999382921    -7.284745119701
H                     3.740670928327    -1.340982481991    -7.971063990212
H                     5.486979261340    -4.530664689798    -5.702528628263
H                    -0.695866661462    -4.497127824775     0.590259808008
H                     1.063811661869    -4.603867143919     0.616425186860
H                    -0.577514458470    -2.075306742690     0.073349316672
H                     0.347998914309    -2.411880498766     1.535205626316
H                     0.222550402587    -5.419446316603    -1.573724673611
H                    -0.654892321870    -3.918698228404    -1.828444949483
H                     1.593533946233    -0.879766235754    -0.008828141695
H                     2.465287174284    -2.391152098247     0.242565736815
H                     2.390975882235    -4.224803521762    -1.666936635718
H                     1.437568917211    -3.880536841403    -3.114472505149
H                     0.719346148464    -1.721987999299    -2.179084373405
H                     3.750716288734    -2.064471034952    -1.952427920795
H                     2.880570219497    -0.519550641108    -2.126788594314
H                     2.624761098013    -2.074639519020    -6.089252863143
