
  -OEChem-05262117493D

 40 43  0     1  0  0  0  0  0999 V2000
    2.5594    3.1230   -2.5485 C   0  0  0  0  0  0  0  0  0  0  0  0
    1.6545    2.0660   -2.4767 C   0  0  0  0  0  0  0  0  0  0  0  0
    3.1404    0.9079   -0.9561 C   0  0  0  0  0  0  0  0  0  0  0  0
    5.9568    5.7969   -2.6920 C   0  0  0  0  0  0  0  0  0  0  0  0
    4.8783    5.0187   -3.0354 C   0  0  0  0  0  0  0  0  0  0  0  0
    3.7718    3.0775   -1.8592 C   0  0  0  0  0  0  0  0  0  0  0  0
    1.9418    0.9402   -1.6867 C   0  0  0  0  0  0  0  0  0  0  0  0
    4.0521    1.9630   -1.0393 C   0  0  0  0  0  0  0  0  0  0  0  0
    5.7173    4.3998   -1.0755 C   0  0  0  0  0  0  0  0  0  0  0  0
    0.9831   -1.1372   -0.6925 C   0  0  0  0  0  0  0  0  0  0  0  0
    0.6982   -4.6812   -2.4425 C   0  0  0  0  0  0  0  0  0  0  0  0
    5.8300    3.6212    0.1884 C   0  0  0  0  0  0  0  0  0  0  0  0
   -0.1628   -0.1691   -2.4953 C   0  0  0  0  0  0  0  0  0  0  0  0
   -0.6777   -1.5909   -2.2245 C   0  0  1  0  0  0  0  0  0  0  0  0
    0.3639   -6.0083   -1.7883 C   0  0  0  0  0  0  0  0  0  0  0  0
   -0.2354   -2.5810   -3.3120 C   0  0  0  0  0  0  0  0  0  0  0  0
    6.4741    5.4039   -1.4701 N   0  0  0  0  0  0  0  0  0  0  0  0
    4.7223    4.1163   -1.9881 N   0  0  0  0  0  0  0  0  0  0  0  0
    1.0226   -0.1301   -1.6498 N   0  0  0  0  0  0  0  0  0  0  0  0
   -0.3858   -3.9651   -2.9132 N   0  0  0  0  0  0  0  0  0  0  0  0
    1.7190   -1.3177    0.2487 O   0  0  0  0  0  0  0  0  0  0  0  0
    1.8496   -4.2734   -2.5519 O   0  0  0  0  0  0  0  0  0  0  0  0
   -0.0920   -1.9470   -0.9589 O   0  0  0  0  0  0  0  0  0  0  0  0
    5.5839    1.8309   -0.1449 S   0  0  0  0  0  0  0  0  0  0  0  0
    2.3111    3.9960   -3.1438 H   0  0  0  0  0  0  0  0  0  0  0  0
    0.7237    2.1406   -3.0266 H   0  0  0  0  0  0  0  0  0  0  0  0
    3.3556    0.0640   -0.3144 H   0  0  0  0  0  0  0  0  0  0  0  0
    6.3983    6.6073   -3.2572 H   0  0  0  0  0  0  0  0  0  0  0  0
    4.2570    4.9912   -3.9175 H   0  0  0  0  0  0  0  0  0  0  0  0
    6.8323    3.7434    0.6005 H   0  0  0  0  0  0  0  0  0  0  0  0
    5.0974    3.9448    0.9353 H   0  0  0  0  0  0  0  0  0  0  0  0
    0.0953   -0.0254   -3.5490 H   0  0  0  0  0  0  0  0  0  0  0  0
   -0.8880    0.6006   -2.2023 H   0  0  0  0  0  0  0  0  0  0  0  0
   -1.7620   -1.6185   -2.0894 H   0  0  0  0  0  0  0  0  0  0  0  0
    1.1064   -6.7489   -2.0908 H   0  0  0  0  0  0  0  0  0  0  0  0
    0.4367   -5.8843   -0.7032 H   0  0  0  0  0  0  0  0  0  0  0  0
   -0.6376   -6.3739   -2.0337 H   0  0  0  0  0  0  0  0  0  0  0  0
    0.8243   -2.4357   -3.5336 H   0  0  0  0  0  0  0  0  0  0  0  0
   -0.8096   -2.3783   -4.2247 H   0  0  0  0  0  0  0  0  0  0  0  0
   -1.3100   -4.2952   -2.6669 H   0  0  0  0  0  0  0  0  0  0  0  0
  1  2  1  0  0  0  0
  1  6  2  0  0  0  0
  1 25  1  0  0  0  0
  2  7  2  0  0  0  0
  2 26  1  0  0  0  0
  3  7  1  0  0  0  0
  3  8  2  0  0  0  0
  3 27  1  0  0  0  0
  4  5  2  0  0  0  0
  4 17  1  0  0  0  0
  4 28  1  0  0  0  0
  5 18  1  0  0  0  0
  5 29  1  0  0  0  0
  6  8  1  0  0  0  0
  6 18  1  0  0  0  0
  7 19  1  0  0  0  0
  8 24  1  0  0  0  0
  9 12  1  0  0  0  0
  9 17  2  0  0  0  0
  9 18  1  0  0  0  0
 10 19  1  0  0  0  0
 10 21  2  0  0  0  0
 10 23  1  0  0  0  0
 11 15  1  0  0  0  0
 11 20  1  0  0  0  0
 11 22  2  0  0  0  0
 12 24  1  0  0  0  0
 12 30  1  0  0  0  0
 12 31  1  0  0  0  0
 13 14  1  0  0  0  0
 13 19  1  0  0  0  0
 13 32  1  0  0  0  0
 13 33  1  0  0  0  0
 14 16  1  0  0  0  0
 14 23  1  0  0  0  0
 14 34  1  0  0  0  0
 15 35  1  0  0  0  0
 15 36  1  0  0  0  0
 15 37  1  0  0  0  0
 16 20  1  0  0  0  0
 16 38  1  0  0  0  0
 16 39  1  0  0  0  0
 20 40  1  0  0  0  0
M  END
$$$$
