
  -OEChem-05262117483D

 36 38  0     1  0  0  0  0  0999 V2000
   -1.0349   -3.3487   -0.5709 C   0  0  0  0  0  0  0  0  0  0  0  0
   -1.0971   -4.1098   -1.7387 C   0  0  0  0  0  0  0  0  0  0  0  0
    0.7385   -2.8108   -2.6543 C   0  0  0  0  0  0  0  0  0  0  0  0
   -1.0487   -0.4037    5.0273 C   0  0  0  0  0  0  0  0  0  0  0  0
    0.5839   -1.3482    4.0945 C   0  0  0  0  0  0  0  0  0  0  0  0
   -0.1044   -2.3124   -0.3902 C   0  0  0  0  0  0  0  0  0  0  0  0
   -0.2042   -3.8257   -2.7647 C   0  0  0  0  0  0  0  0  0  0  0  0
    0.7540   -2.0848   -1.4705 C   0  0  0  0  0  0  0  0  0  0  0  0
   -0.0025    1.0852    0.1021 C   0  0  0  0  0  0  0  0  0  0  0  0
   -0.4726    1.0768    1.5323 C   0  0  0  0  0  0  0  0  0  0  0  0
   -0.7837   -0.1040    0.6397 C   0  0  0  0  0  0  0  0  0  0  0  0
   -3.5263    0.2229    1.4134 C   0  0  0  0  0  0  0  0  0  0  0  0
   -0.6728   -2.2224    2.0663 C   0  0  0  0  0  0  0  0  0  0  0  0
   -0.0513   -1.4490    0.8806 C   0  0  1  0  0  0  0  0  0  0  0  0
    0.2896   -0.6341    5.1739 N   0  0  0  0  0  0  0  0  0  0  0  0
   -1.5898   -0.9296    3.9347 N   0  0  0  0  0  0  0  0  0  0  0  0
   -0.5232   -1.5373    3.3378 N   0  0  0  0  0  0  0  0  0  0  0  0
    1.3038   -1.2388    1.2970 O   0  0  0  0  0  0  0  0  0  0  0  0
   -0.2477   -4.5505   -3.9063 F   0  0  0  0  0  0  0  0  0  0  0  0
    1.6920   -1.0878   -1.3929 F   0  0  0  0  0  0  0  0  0  0  0  0
   -2.4788   -0.2984    0.0054 S   0  0  0  0  0  0  0  0  0  0  0  0
   -1.7526   -3.5664    0.2095 H   0  0  0  0  0  0  0  0  0  0  0  0
   -1.8276   -4.9029   -1.8588 H   0  0  0  0  0  0  0  0  0  0  0  0
    1.4346   -2.5872   -3.4552 H   0  0  0  0  0  0  0  0  0  0  0  0
   -1.6398    0.1553    5.7413 H   0  0  0  0  0  0  0  0  0  0  0  0
    1.5557   -1.7268    3.8126 H   0  0  0  0  0  0  0  0  0  0  0  0
   -0.5231    1.7128   -0.6124 H   0  0  0  0  0  0  0  0  0  0  0  0
    1.0614    0.9824   -0.0816 H   0  0  0  0  0  0  0  0  0  0  0  0
    0.2761    0.9178    2.3006 H   0  0  0  0  0  0  0  0  0  0  0  0
   -1.2909    1.7250    1.8234 H   0  0  0  0  0  0  0  0  0  0  0  0
   -4.5382   -0.1105    1.1667 H   0  0  0  0  0  0  0  0  0  0  0  0
   -3.5350    1.3103    1.5210 H   0  0  0  0  0  0  0  0  0  0  0  0
   -3.2006   -0.2415    2.3447 H   0  0  0  0  0  0  0  0  0  0  0  0
   -1.7415   -2.3609    1.9199 H   0  0  0  0  0  0  0  0  0  0  0  0
   -0.1882   -3.1994    2.1348 H   0  0  0  0  0  0  0  0  0  0  0  0
    1.8186   -0.9166    0.5411 H   0  0  0  0  0  0  0  0  0  0  0  0
  1  2  1  0  0  0  0
  1  6  2  0  0  0  0
  1 22  1  0  0  0  0
  2  7  2  0  0  0  0
  2 23  1  0  0  0  0
  3  7  1  0  0  0  0
  3  8  2  0  0  0  0
  3 24  1  0  0  0  0
  4 15  1  0  0  0  0
  4 16  2  0  0  0  0
  4 25  1  0  0  0  0
  5 15  2  0  0  0  0
  5 17  1  0  0  0  0
  5 26  1  0  0  0  0
  6  8  1  0  0  0  0
  6 14  1  0  0  0  0
  7 19  1  0  0  0  0
  8 20  1  0  0  0  0
  9 10  1  0  0  0  0
  9 11  1  0  0  0  0
  9 27  1  0  0  0  0
  9 28  1  0  0  0  0
 10 11  1  0  0  0  0
 10 29  1  0  0  0  0
 10 30  1  0  0  0  0
 11 14  1  0  0  0  0
 11 21  1  0  0  0  0
 12 21  1  0  0  0  0
 12 31  1  0  0  0  0
 12 32  1  0  0  0  0
 12 33  1  0  0  0  0
 13 14  1  0  0  0  0
 13 17  1  0  0  0  0
 13 34  1  0  0  0  0
 13 35  1  0  0  0  0
 14 18  1  0  0  0  0
 16 17  1  0  0  0  0
 18 36  1  0  0  0  0
M  END
$$$$
