39
-1 1 C16H19O4
C                     0.051013365747    -0.707344546912    -7.332370502441
C                     0.136784048502    -2.082146818522    -7.090541216259
C                     1.227757154195     0.052769747244    -7.390278025932
C                     1.387386312059    -2.680089819245    -6.895525433265
C                     2.474871510213    -0.547260074393    -7.203340572276
C                     2.569390344235    -1.925895832719    -6.943508317546
C                     5.116312845417    -2.297469406551    -7.649251775306
C                     4.272173274868    -2.108476686819    -5.246592141810
C                    -0.463773537442    -1.515417933541    -3.124731769568
C                    -0.061479744834    -2.808234853987    -2.400366544597
C                     0.561564459370    -0.402112253074    -2.870401253878
C                     1.356142001465    -3.250512403490    -2.790665916587
C                     1.973393397997    -0.845978900574    -3.275779461693
C                     2.394587749536    -2.139235413820    -2.555133452912
C                     3.806730675461    -2.596922646032    -2.939235874010
C                     3.902336148426    -2.571312543410    -6.637264644347
O                     4.970354642117    -1.370480751211    -8.477582631779
O                     6.066721799288    -3.094539749025    -7.455358684099
O                     4.776731579457    -1.047003242081    -4.936985272265
O                     3.851823093273    -3.028114403940    -4.311680968069
H                    -0.918613023662    -0.233617821150    -7.474120302262
H                    -0.767052839283    -2.687285533913    -7.044543593202
H                     1.170466762460     1.122544188506    -7.583537665559
H                     1.449125861736    -3.747039332636    -6.688928601724
H                     3.392003091690     0.026897574900    -7.260406651083
H                    -1.464865385893    -1.196264177939    -2.805238472700
H                    -0.515733045583    -1.705762711631    -4.204183978287
H                    -0.106333477266    -2.642288076951    -1.313304682920
H                    -0.778319551276    -3.608860156044    -2.624691548252
H                     0.284656793783     0.499479902026    -3.429841908139
H                     0.548467434533    -0.132379754203    -1.803108934198
H                     1.640385269717    -4.151433350216    -2.229935371708
H                     1.373932971039    -3.520216533170    -3.852397060043
H                     1.988559849692    -1.008828070014    -4.357265081471
H                     2.702374275935    -0.053304650152    -3.075061831297
H                     2.430747185065    -1.928559520294    -1.472702061165
H                     4.095081189675    -3.473110860660    -2.348236001090
H                     4.537240547448    -1.799141036470    -2.782931668855
H                     3.768563075919    -3.653387534306    -6.587043303423
