
  -OEChem-05262117483D

 36 36  0     0  0  0  0  0  0999 V2000
   -1.6867    0.7271    5.3364 C   0  0  0  0  0  0  0  0  0  0  0  0
   -0.0632    2.2903    6.1012 C   0  0  0  0  0  0  0  0  0  0  0  0
   -0.6911    1.0525    6.2592 C   0  0  0  0  0  0  0  0  0  0  0  0
   -1.3732    2.7347    4.2739 C   0  0  0  0  0  0  0  0  0  0  0  0
   -2.8943    0.7703   -0.7880 C   0  0  0  0  0  0  0  0  0  0  0  0
    1.9860    4.0758    0.8173 C   0  0  0  0  0  0  0  0  0  0  0  0
   -3.3770    1.7512    0.2863 C   0  0  0  0  0  0  0  0  0  0  0  0
    1.0468    3.9957    2.0251 C   0  0  0  0  0  0  0  0  0  0  0  0
   -2.2568    2.1851    1.2374 C   0  0  0  0  0  0  0  0  0  0  0  0
   -0.1324    4.9683    1.9191 C   0  0  0  0  0  0  0  0  0  0  0  0
   -2.7571    3.1697    2.3026 C   0  0  0  0  0  0  0  0  0  0  0  0
   -1.1073    4.8929    3.1027 C   0  0  0  0  0  0  0  0  0  0  0  0
   -2.0322    1.5488    4.3487 N   0  0  0  0  0  0  0  0  0  0  0  0
   -0.3901    3.1293    5.1226 N   0  0  0  0  0  0  0  0  0  0  0  0
   -1.7379    3.5822    3.2709 N   0  0  0  0  0  0  0  0  0  0  0  0
   -0.2010   -0.1462    7.6645 Br  0  0  0  0  0  0  0  0  0  0  0  0
   -2.2169   -0.2223    5.3955 H   0  0  0  0  0  0  0  0  0  0  0  0
    0.7255    2.6095    6.7810 H   0  0  0  0  0  0  0  0  0  0  0  0
   -2.4807   -0.1373   -0.3338 H   0  0  0  0  0  0  0  0  0  0  0  0
   -3.7120    0.4695   -1.4517 H   0  0  0  0  0  0  0  0  0  0  0  0
   -2.1085    1.2179   -1.4074 H   0  0  0  0  0  0  0  0  0  0  0  0
    2.4065    5.0821    0.7057 H   0  0  0  0  0  0  0  0  0  0  0  0
    2.8216    3.3744    0.9147 H   0  0  0  0  0  0  0  0  0  0  0  0
    1.4559    3.8348   -0.1120 H   0  0  0  0  0  0  0  0  0  0  0  0
   -3.8136    2.6363   -0.1963 H   0  0  0  0  0  0  0  0  0  0  0  0
   -4.1846    1.2888    0.8683 H   0  0  0  0  0  0  0  0  0  0  0  0
    0.6651    2.9732    2.1239 H   0  0  0  0  0  0  0  0  0  0  0  0
    1.6015    4.2015    2.9482 H   0  0  0  0  0  0  0  0  0  0  0  0
   -1.8416    1.3067    1.7417 H   0  0  0  0  0  0  0  0  0  0  0  0
   -1.4416    2.6424    0.6645 H   0  0  0  0  0  0  0  0  0  0  0  0
    0.2424    5.9993    1.8650 H   0  0  0  0  0  0  0  0  0  0  0  0
   -0.6731    4.7935    0.9799 H   0  0  0  0  0  0  0  0  0  0  0  0
   -3.5936    2.7193    2.8439 H   0  0  0  0  0  0  0  0  0  0  0  0
   -3.1269    4.0814    1.8222 H   0  0  0  0  0  0  0  0  0  0  0  0
   -1.9061    5.6330    2.9681 H   0  0  0  0  0  0  0  0  0  0  0  0
   -0.5853    5.1317    4.0285 H   0  0  0  0  0  0  0  0  0  0  0  0
  1  3  1  0  0  0  0
  1 13  2  0  0  0  0
  1 17  1  0  0  0  0
  2  3  2  0  0  0  0
  2 14  1  0  0  0  0
  2 18  1  0  0  0  0
  3 16  1  0  0  0  0
  4 13  1  0  0  0  0
  4 14  2  0  0  0  0
  4 15  1  0  0  0  0
  5  7  1  0  0  0  0
  5 19  1  0  0  0  0
  5 20  1  0  0  0  0
  5 21  1  0  0  0  0
  6  8  1  0  0  0  0
  6 22  1  0  0  0  0
  6 23  1  0  0  0  0
  6 24  1  0  0  0  0
  7  9  1  0  0  0  0
  7 25  1  0  0  0  0
  7 26  1  0  0  0  0
  8 10  1  0  0  0  0
  8 27  1  0  0  0  0
  8 28  1  0  0  0  0
  9 11  1  0  0  0  0
  9 29  1  0  0  0  0
  9 30  1  0  0  0  0
 10 12  1  0  0  0  0
 10 31  1  0  0  0  0
 10 32  1  0  0  0  0
 11 15  1  0  0  0  0
 11 33  1  0  0  0  0
 11 34  1  0  0  0  0
 12 15  1  0  0  0  0
 12 35  1  0  0  0  0
 12 36  1  0  0  0  0
M  END
$$$$
