36
0 1 BrC12H20N3
C                    -1.686743183078     0.727095356036     5.336404082130
C                    -0.063175561999     2.290293842951     6.101198805836
C                    -0.691101669393     1.052474452888     6.259223932322
C                    -1.373212194636     2.734721587631     4.273890603086
C                    -2.894310554486     0.770264008308    -0.787976903076
C                     1.986034033948     4.075769169003     0.817270449508
C                    -3.376969685728     1.751249578136     0.286256681702
C                     1.046751126183     3.995652924664     2.025139843517
C                    -2.256837407572     2.185118036086     1.237375928977
C                    -0.132358576532     4.968277674483     1.919059312958
C                    -2.757090934930     3.169724543311     2.302610998166
C                    -1.107312446926     4.892927025476     3.102686987819
N                    -2.032241502228     1.548836024739     4.348708375934
N                    -0.390050325320     3.129330017897     5.122624082712
N                    -1.737875597822     3.582195313281     3.270908681808
Br                   -0.201021288155    -0.146242784220     7.664479648600
H                    -2.216887639729    -0.222309584622     5.395531539011
H                     0.725510502041     2.609475893659     6.780952455158
H                    -2.480743768552    -0.137343484066    -0.333814880104
H                    -3.711986422530     0.469463832906    -1.451727826081
H                    -2.108482946985     1.217854534049    -1.407447959876
H                     2.406518409591     5.082108851976     0.705743029126
H                     2.821564409874     3.374401715728     0.914676421474
H                     1.455949189110     3.834766335912    -0.111958673349
H                    -3.813620033567     2.636325784401    -0.196290671438
H                    -4.184595070931     1.288805101009     0.868340389591
H                     0.665098038847     2.973171315308     2.123875664273
H                     1.601472826792     4.201475575238     2.948195960751
H                    -1.841575592948     1.306746923130     1.741706772034
H                    -1.441628193260     2.642398833741     0.664515922748
H                     0.242357590251     5.999303416125     1.864984455960
H                    -0.673116777539     4.793499353143     0.979852262746
H                    -3.593622344801     2.719327891366     2.843925591968
H                    -3.126926352129     4.081441313688     1.822219830488
H                    -1.906064630994     5.632980047530     2.968107073527
H                    -0.585288352158     5.131653756256     4.028510289106
