
  -OEChem-05262117483D

 39 40  0     1  0  0  0  0  0999 V2000
    0.0510   -0.7073   -7.3324 C   0  0  0  0  0  0  0  0  0  0  0  0
    0.1368   -2.0821   -7.0905 C   0  0  0  0  0  0  0  0  0  0  0  0
    1.2278    0.0528   -7.3903 C   0  0  0  0  0  0  0  0  0  0  0  0
    1.3874   -2.6801   -6.8955 C   0  0  0  0  0  0  0  0  0  0  0  0
    2.4749   -0.5473   -7.2033 C   0  0  0  0  0  0  0  0  0  0  0  0
    2.5694   -1.9259   -6.9435 C   0  0  0  0  0  0  0  0  0  0  0  0
    5.1163   -2.2975   -7.6493 C   0  0  0  0  0  0  0  0  0  0  0  0
    4.2722   -2.1085   -5.2466 C   0  0  0  0  0  0  0  0  0  0  0  0
   -0.4638   -1.5154   -3.1247 C   0  0  0  0  0  0  0  0  0  0  0  0
   -0.0615   -2.8082   -2.4004 C   0  0  0  0  0  0  0  0  0  0  0  0
    0.5616   -0.4021   -2.8704 C   0  0  0  0  0  0  0  0  0  0  0  0
    1.3561   -3.2505   -2.7907 C   0  0  0  0  0  0  0  0  0  0  0  0
    1.9734   -0.8460   -3.2758 C   0  0  0  0  0  0  0  0  0  0  0  0
    2.3946   -2.1392   -2.5551 C   0  0  0  0  0  0  0  0  0  0  0  0
    3.8067   -2.5969   -2.9392 C   0  0  0  0  0  0  0  0  0  0  0  0
    3.9023   -2.5713   -6.6373 C   0  0  1  0  0  0  0  0  0  0  0  0
    4.9704   -1.3705   -8.4776 O   0  5  0  0  0  0  0  0  0  0  0  0
    6.0667   -3.0945   -7.4554 O   0  0  0  0  0  0  0  0  0  0  0  0
    4.7767   -1.0470   -4.9370 O   0  0  0  0  0  0  0  0  0  0  0  0
    3.8518   -3.0281   -4.3117 O   0  0  0  0  0  0  0  0  0  0  0  0
   -0.9186   -0.2336   -7.4741 H   0  0  0  0  0  0  0  0  0  0  0  0
   -0.7671   -2.6873   -7.0445 H   0  0  0  0  0  0  0  0  0  0  0  0
    1.1705    1.1225   -7.5835 H   0  0  0  0  0  0  0  0  0  0  0  0
    1.4491   -3.7470   -6.6889 H   0  0  0  0  0  0  0  0  0  0  0  0
    3.3920    0.0269   -7.2604 H   0  0  0  0  0  0  0  0  0  0  0  0
   -1.4649   -1.1963   -2.8052 H   0  0  0  0  0  0  0  0  0  0  0  0
   -0.5157   -1.7058   -4.2042 H   0  0  0  0  0  0  0  0  0  0  0  0
   -0.1063   -2.6423   -1.3133 H   0  0  0  0  0  0  0  0  0  0  0  0
   -0.7783   -3.6089   -2.6247 H   0  0  0  0  0  0  0  0  0  0  0  0
    0.2847    0.4995   -3.4298 H   0  0  0  0  0  0  0  0  0  0  0  0
    0.5485   -0.1324   -1.8031 H   0  0  0  0  0  0  0  0  0  0  0  0
    1.6404   -4.1514   -2.2299 H   0  0  0  0  0  0  0  0  0  0  0  0
    1.3739   -3.5202   -3.8524 H   0  0  0  0  0  0  0  0  0  0  0  0
    1.9886   -1.0088   -4.3573 H   0  0  0  0  0  0  0  0  0  0  0  0
    2.7024   -0.0533   -3.0751 H   0  0  0  0  0  0  0  0  0  0  0  0
    2.4307   -1.9286   -1.4727 H   0  0  0  0  0  0  0  0  0  0  0  0
    4.0951   -3.4731   -2.3482 H   0  0  0  0  0  0  0  0  0  0  0  0
    4.5372   -1.7991   -2.7829 H   0  0  0  0  0  0  0  0  0  0  0  0
    3.7686   -3.6534   -6.5870 H   0  0  0  0  0  0  0  0  0  0  0  0
  1  2  1  0  0  0  0
  1  3  2  0  0  0  0
  1 21  1  0  0  0  0
  2  4  2  0  0  0  0
  2 22  1  0  0  0  0
  3  5  1  0  0  0  0
  3 23  1  0  0  0  0
  4  6  1  0  0  0  0
  4 24  1  0  0  0  0
  5  6  2  0  0  0  0
  5 25  1  0  0  0  0
  6 16  1  0  0  0  0
  7 16  1  0  0  0  0
  7 17  1  0  0  0  0
  7 18  2  0  0  0  0
  8 16  1  0  0  0  0
  8 19  2  0  0  0  0
  8 20  1  0  0  0  0
  9 10  1  0  0  0  0
  9 11  1  0  0  0  0
  9 26  1  0  0  0  0
  9 27  1  0  0  0  0
 10 12  1  0  0  0  0
 10 28  1  0  0  0  0
 10 29  1  0  0  0  0
 11 13  1  0  0  0  0
 11 30  1  0  0  0  0
 11 31  1  0  0  0  0
 12 14  1  0  0  0  0
 12 32  1  0  0  0  0
 12 33  1  0  0  0  0
 13 14  1  0  0  0  0
 13 34  1  0  0  0  0
 13 35  1  0  0  0  0
 14 15  1  0  0  0  0
 14 36  1  0  0  0  0
 15 20  1  0  0  0  0
 15 37  1  0  0  0  0
 15 38  1  0  0  0  0
 16 39  1  0  0  0  0
M  CHG  1  17  -1
M  END
$$$$
