40
0 1 C16H20O4
C                    -1.045785637070    -7.434927839925    -1.902456647854
C                    -0.596119699476    -7.410236711739    -0.580095059931
C                    -0.116277569030    -7.466983331556    -2.949244345473
C                     0.776364850036    -7.411310052459    -0.309983744262
C                     1.251408152823    -7.468187193835    -2.675352989987
C                     1.708932282035    -7.436253529381    -1.351519590904
C                     4.043970688159    -8.439990512454    -1.748457205247
C                     3.772206069423    -5.947407329873    -1.186698209751
C                     0.184178916358    -0.586331169937    -1.056959520796
C                     1.253769833672    -0.405470554530    -2.143198755332
C                    -0.221084444127    -2.059992544717    -0.915120549324
C                     2.472282246121    -1.304286323185    -1.888044088471
C                     0.996316294005    -2.959580494049    -0.661921726725
C                     2.064137267010    -2.781606751998    -1.754482819142
C                     3.295056149203    -3.635800959430    -1.496301930691
C                     3.185179629425    -7.354791227556    -1.035888345739
O                     3.547904434234    -9.416410918111    -2.258614231184
O                     4.970211679602    -5.706651336784    -1.057364632410
O                     5.376166933999    -8.264995286667    -1.692938916863
O                     2.853747015163    -5.023378558467    -1.424748837267
H                    -2.111188323140    -7.436460046080    -2.117747908592
H                    -1.309034879010    -7.392557218637     0.240104983409
H                    -0.459591280609    -7.496567867245    -3.980081583609
H                     1.120109883376    -7.387661350460     0.722341249142
H                     1.964478936915    -7.506235728505    -3.493845230298
H                    -0.693482368871     0.029641956708    -1.285004619075
H                     0.580163413751    -0.226159126575    -0.097186347548
H                     0.821845451083    -0.654553489702    -3.122059313527
H                     1.569603256282     0.642666354473    -2.197452114387
H                    -0.947067506709    -2.178981940572    -0.102639455203
H                    -0.725020102936    -2.388412521368    -1.834403617170
H                     3.205269630557    -1.184662793111    -2.695632050261
H                     2.969258166254    -0.983188015962    -0.961403044348
H                     1.440416276904    -2.705009551986     0.312004672030
H                     0.689804857137    -4.008835173491    -0.608545431271
H                     1.631540898157    -3.106365340945    -2.711277042200
H                     3.781477576952    -3.382458946770    -0.549222602163
H                     4.034708372438    -3.550504530583    -2.297185756983
H                     3.328656134484    -7.575509565722     0.031222614328
H                     5.575350394993    -7.365637852219    -1.334924815832
