18   
torsion grid (-165,)
C       -1.1346880064    0.5306603145    2.2442068842
C       -0.8050322052    0.5947376791    3.5626687324
C        0.0593252210    0.0366247410    1.6193654513
C        1.4571583696   -0.9673059473   -0.3141692132
C       -0.9030415503   -0.1800741575   -0.7879850842
C       -0.0535932528    1.0488292527   -0.7333588933
C        0.3017143608   -0.1350131570    0.1629306310
N        1.0170131238   -0.1558591724    2.5054303829
O        2.0413699308   -0.7807012139   -1.3669869539
O        0.4663865351    0.1917459335    3.7475349018
O        1.7354571839   -2.0107488111    0.4962779036
H       -2.0817449402    0.7853645616    1.7905585177
H       -1.3456376539    0.8893855609    4.4526896182
H       -1.8868231338   -0.1743057978   -0.3308495245
H       -0.8041620050   -0.8280697340   -1.6523778170
H        0.6270353064    1.2356956749   -1.5562291490
H       -0.4415553919    1.9255964243   -0.2257451195
H        2.4826489388   -2.4835502758    0.0816694906
18   
torsion grid (-150,)
C       -1.1836650348    0.3641631826    2.2715728180
C       -0.8070208743    0.5530443464    3.5662466742
C        0.0501269833    0.0864888239    1.5967125867
C        1.3820757806   -1.0060816667   -0.3258522448
C       -0.9240395772   -0.0812459266   -0.8166998695
C       -0.0021786385    1.0934408760   -0.7670164636
C        0.2749127945   -0.1065541706    0.1387803589
N        1.0709258991    0.1284617791    2.4311422264
O        1.9098723203   -0.9269966988   -1.4213324216
O        0.5269411671    0.4159422413    3.6895901772
O        1.6905728068   -1.9779692039    0.5609513335
H       -2.1847249527    0.3977900818    1.8670960318
H       -1.3489362642    0.7745387230    4.4764127436
H       -1.9094677749   -0.0030227026   -0.3705012015
H       -0.8603505016   -0.7404832802   -1.6756312872
H        0.6926215087    1.2336647351   -1.5874121755
H       -0.3386779763    1.9926814099   -0.2619604467
H        2.4021423945   -2.5037860864    0.1477280629
18   
torsion grid (-135,)
C       -1.1564553353    0.1878966879    2.3075861106
C       -0.7789588185    0.4961248603    3.5795573384
C        0.0837492205    0.1092988382    1.5963019293
C        1.3569927967   -1.0988144219   -0.2888881424
C       -0.8793377874   -0.0236691018   -0.8238194250
C        0.1294356927    1.0768237961   -0.7928303736
C        0.3055672736   -0.1218128791    0.1419728745
N        1.1068429450    0.3726873913    2.3862978551
O        1.8163018830   -1.1549376392   -1.4163135779
O        0.5615244112    0.6084395482    3.6536104079
O        1.7116439501   -1.9683694636    0.6843684503
H       -2.1570193506    0.0149696983    1.9389803743
H       -1.3209601785    0.6553787416    4.5025640834
H       -1.8561885888    0.1492108016   -0.3851576057
H       -0.8627897916   -0.7057947297   -1.6667675583
H        0.8387153031    1.1435581542   -1.6100988704
H       -0.1389386094    2.0102023827   -0.3095430666
H        2.3847568858   -2.5548118031    0.2887588591
18   
torsion grid (-120,)
C       -1.1660415710    0.0057465153    2.3386968781
C       -0.8010841093    0.3903016739    3.5935574571
C        0.0364723327    0.1528855457    1.5775868047
C        1.2397924061   -1.1039976544   -0.3116200925
C       -0.9395999855    0.1014305763   -0.8355256080
C        0.1375946739    1.1354356862   -0.8116745328
C        0.2439434603   -0.0731550981    0.1197118180
N        1.0250834308    0.6087742263    2.3219639930
O        1.6279353863   -1.2452254368   -1.4580375658
O        0.4980174203    0.7500258376    3.6103187166
O        1.6455260146   -1.9087853692    0.6986290935
H       -2.1293736091   -0.3526968702    2.0056047164
H       -1.3240963261    0.4571622778    4.5385634852
H       -1.8962960620    0.3376533887   -0.3813577324
H       -0.9739444596   -0.5782216615   -1.6799157757
H        0.8412578514    1.1575597863   -1.6362565709
H       -0.0636565047    2.0840550421   -0.3257866956
H        2.2818026231   -2.5358036995    0.3042892418
18   
torsion grid (-105,)
C       -1.1192915849   -0.1452186887    2.3570038483
C       -0.7989589230    0.3336066065    3.5911374450
C        0.0116272933    0.2066983489    1.5551618620
C        1.1636297876   -1.1245801290   -0.3055124297
C       -0.9466727511    0.1953823176   -0.8604908606
C        0.1910929553    1.1631095006   -0.8465751404
C        0.2211917083   -0.0369059405    0.1005752672
N        0.9175629667    0.8586898536    2.2567572213
O        1.4942567507   -1.3558602887   -1.4550993623
O        0.4092637867    0.9328386142    3.5585019117
O        1.6057637555   -1.8613281642    0.7424970588
H       -2.0072283697   -0.6827669219    2.0561950685
H       -1.2993026222    0.3287459022    4.5506756213
H       -1.8861300863    0.4934367935   -0.4058692261
H       -1.0202318601   -0.4919198700   -1.6962450203
H        0.8949185214    1.1312167521   -1.6706940638
H        0.0498562880    2.1285210888   -0.3733516675
H        2.2083789729   -2.5311729809    0.3659996974
18   
torsion grid (-90,)
C       -1.0310129408   -0.2961643290    2.3932853068
C       -0.7834544541    0.2844308563    3.5994479244
C       -0.0107256865    0.2399298945    1.5459113734
C        1.0955599979   -1.1616395839   -0.2837507101
C       -0.9334850729    0.2684198378   -0.8810387852
C        0.2581319660    1.1690906160   -0.8612824991
C        0.2077118238   -0.0214971521    0.0964946441
N        0.7653070837    1.0831168667    2.1969574184
O        1.3861680879   -1.4608741038   -1.4282879480
O        0.2807335269    1.1101868687    3.5098468612
O        1.5494130343   -1.8572462076    0.7888349957
H       -1.8040210875   -1.0059210191    2.1351339518
H       -1.2523013510    0.2213426244    4.5727586890
H       -1.8585764427    0.6224975271   -0.4368962988
H       -1.0365469227   -0.4226736188   -1.7106939341
H        0.9670491694    1.0885763192   -1.6776044673
H        0.1703474835    2.1444135081   -0.3962761270
H        2.1200440667   -2.5638930820    0.4300098406
18   
torsion grid (-75,)
C       -0.9091746031   -0.4269920065    2.4321667347
C       -0.7694111493    0.2531316224    3.6021958147
C       -0.0376466987    0.2661880435    1.5331152811
C        1.0174138591   -1.1916940130   -0.2838125868
C       -0.9255528970    0.3459750549   -0.9027094387
C        0.3130798649    1.1792765364   -0.8699520305
C        0.1891422282   -0.0061690156    0.0880276183
N        0.5567454171    1.2828970967    2.1246475857
O        1.2745554224   -1.5275082887   -1.4261050920
O        0.0965498320    1.2780688098    3.4467629686
O        1.4675443191   -1.8818605681    0.7953938191
H       -1.5186777922   -1.2957938968    2.2288188395
H       -1.1991253544    0.1430991647    4.5893193215
H       -1.8335144989    0.7490322703   -0.4651171978
H       -1.0577360249   -0.3413376263   -1.7314772738
H        1.0246895325    1.0580849590   -1.6788078163
H        0.2753035972    2.1577567432   -0.4056787699
H        2.0024384851   -2.6175870584    0.4397906283
18   
torsion grid (-60,)
C       -0.7546231016   -0.5262245553    2.4786286261
C       -0.7561021519    0.2329386540    3.6070018762
C       -0.0574161719    0.2848598285    1.5264939936
C        0.9589872710   -1.2213274182   -0.2819464275
C       -0.9013773303    0.4050181715   -0.9187386133
C        0.3717811066    1.1807888138   -0.8696499603
C        0.1890884955    0.0023986862    0.0873609873
N        0.3113259917    1.4357037633    2.0536325596
O        1.2144949308   -1.5603662776   -1.4236230445
O       -0.1300135489    1.4087152864    3.3819936836
O        1.3610320857   -1.9458739023    0.7951948961
H       -1.1607153177   -1.5168895119    2.3356669522
H       -1.1432436272    0.0873509223    4.6070567331
H       -1.7938929215    0.8454657363   -0.4859722304
H       -1.0543371778   -0.2780841535   -1.7474240291
H        1.0864717127    1.0261353081   -1.6700212414
H        0.3712732023    2.1602112841   -0.4063806494
H        1.8612760244   -2.7034329161    0.4348973795
18   
torsion grid (-45,)
C       -0.5849200607   -0.6113395452    2.5099982247
C       -0.7300565523    0.1990437318    3.5926095155
C       -0.0741969421    0.2645339043    1.4978377300
C        0.9122116939   -1.2885331145   -0.3029714265
C       -0.8487624415    0.4317458752   -0.9624181068
C        0.4578569817    1.1422351741   -0.8844030452
C        0.2021662160   -0.0304706482    0.0667363214
N        0.0643294752    1.4943865632    1.9555079332
O        1.1419793593   -1.6401228878   -1.4465140706
O       -0.3548318939    1.4603551344    3.2902857437
O        1.3004414221   -2.0303410840    0.7685536176
H       -0.7848000036   -1.6693235477    2.4335930525
H       -1.0694537546    0.0369512540    4.6073630685
H       -1.7251161775    0.9117989781   -0.5395805806
H       -1.0184271753   -0.2418200150   -1.7955175484
H        1.1812943209    0.9535869805   -1.6695184860
H        0.4949951252    2.1180420517   -0.4151167830
H        1.7641307463   -2.8062164186    0.3981928968
18   
torsion grid (-30,)
C       -0.4385541158   -0.6230397009    2.5757498002
C       -0.7190343255    0.2059462558    3.6174959894
C       -0.1347465257    0.2749126199    1.5006832852
C        0.8440831656   -1.2959654190   -0.3095262864
C       -0.8268744973    0.5008772580   -0.9773800632
C        0.5007883244    1.1582909399   -0.8540442757
C        0.1756633438   -0.0204239384    0.0756563864
N       -0.2299626248    1.5331886250    1.8913203886
O        1.0614829646   -1.6356864565   -1.4593179630
O       -0.6062826484    1.4954796475    3.2376131004
O        1.2196082273   -2.0689189335    0.7451135596
H       -0.4298697568   -1.7012586410    2.5634808265
H       -0.9989539566    0.0389598043    4.6494614916
H       -1.6923960604    1.0088274562   -0.5656367638
H       -1.0015756328   -0.1522874908   -1.8254103775
H        1.2399074863    0.9513294259   -1.6196866090
H        0.5593061692    2.1231405948   -0.3643099181
H        1.6575416288   -2.8495901588    0.3537294696
18   
torsion grid (-15,)
C       -0.2841503341   -0.6065046911    2.6286886724
C       -0.6919902955    0.2204441291    3.6299560860
C       -0.1893969847    0.2599173464    1.4901610461
C        0.8002827709   -1.3177356689   -0.3286654408
C       -0.7888348369    0.5417875618   -1.0070011809
C        0.5507141781    1.1548243688   -0.8269873020
C        0.1597251559   -0.0332624073    0.0716436991
N       -0.5161761257    1.4999821095    1.8130576404
O        1.0513864910   -1.6235239957   -1.4813416041
O       -0.8406457786    1.4793832727    3.1719092885
O        1.1087197937   -2.1465383610    0.7057060185
H       -0.0729408977   -1.6616235219    2.6798675595
H       -0.9072784024    0.0692159505    4.6797066098
H       -1.6510331407    1.0649529648   -0.6085095742
H       -0.9517615837   -0.0911534839   -1.8722909698
H        1.3106135840    0.9417442274   -1.5704644022
H        0.6188756478    2.1061396498   -0.3120322739
H        1.5283568667   -2.9274665495    0.2949669915
18   
torsion grid (0,)
C       -0.1296419554   -0.5619764715    2.6622464611
C       -0.6527047509    0.2299894276    3.6382037626
C       -0.2515518802    0.2350984960    1.4763280892
C        0.7595196789   -1.3289981951   -0.3509903901
C       -0.7513535749    0.5873456609   -1.0379483268
C        0.5927799457    1.1619329862   -0.7872157557
C        0.1305632793   -0.0430442586    0.0624157482
N       -0.8054791853    1.4047929984    1.7510233549
O        1.0758865545   -1.5920599231   -1.4982236007
O       -1.0626448367    1.4059583419    3.1237117540
O        0.9675791721   -2.2176348750    0.6586237673
H        0.2795503395   -1.5535072519    2.7571692267
H       -0.7965708362    0.1020936989    4.7031619504
H       -1.6166934292    1.1221149252   -0.6630151074
H       -0.8902123262   -0.0185411788   -1.9263649695
H        1.3797899785    0.9522814104   -1.5030425053
H        0.6593283986    2.0946477094   -0.2385259345
H        1.3798272590   -2.9962046477    0.2359385913
18   
torsion grid (15,)
C        0.6879657600   -0.0712120863    2.6209847783
C        0.2168821897    0.7201845345    3.6232301061
C       -0.1045287025    0.3080790820    1.4878594533
C        0.6816844053   -1.3801304776   -0.3310385466
C       -1.2771563125    0.1528062062   -0.8182372510
C       -0.0437656488    0.9549449339   -1.0126503646
C       -0.0564562656   -0.1496278462    0.0707594123
N       -0.9739263670    1.2494512449    1.8146111459
O        0.7950641576   -1.7607769852   -1.4832004237
O       -0.7707512747    1.5180337941    3.1706272985
O        1.2257400048   -2.0800949286    0.7014487031
H        1.4663536598   -0.8144340226    2.6683275645
H        0.4691704412    0.8253150226    4.6703656954
H       -2.1124170832    0.6070013821   -0.2977766579
H       -1.5106373519   -0.6059715239   -1.5567087952
H        0.5700344222    0.7498493517   -1.8827728273
H       -0.0202335193    1.9649153811   -0.6185935064
H        1.6568292187   -2.8544208165    0.2900722293
18   
torsion grid (30,)
C        0.7841228419    0.0501089384    2.5665778679
C        0.2435190072    0.7351618477    3.6103961987
C       -0.1464553970    0.2701018011    1.4988556552
C        0.6399002764   -1.4053358972   -0.3114194126
C       -1.2536742960    0.1967861771   -0.8458013140
C        0.0115802971    0.9653092929   -0.9835418503
C       -0.0758652156   -0.1561367417    0.0748946676
N       -1.1545978915    1.0259714325    1.8953696791
O        0.7998692983   -1.7758517199   -1.4611295377
O       -0.9092306112    1.3290080484    3.2383092860
O        1.1013702684   -2.1317542557    0.7421929988
H        1.6898555706   -0.5347915586    2.5486233138
H        0.5436315168    0.8863494596    4.6391183314
H       -2.0954814757    0.6658554714   -0.3503008722
H       -1.4816592639   -0.5414969271   -1.6062516304
H        0.6494915340    0.7594106102   -1.8361478011
H        0.0499081791    1.9699475653   -0.5762514712
H        1.5225909677   -2.9213373862    0.3503440954
18   
torsion grid (45,)
C        0.8517977755    0.1795566857    2.4998383450
C        0.2546644106    0.7408514499    3.5852928785
C       -0.1701972660    0.2130924448    1.4964116662
C        0.5972963462   -1.4591428000   -0.3043375504
C       -1.2171983067    0.2239611308   -0.8767702990
C        0.0817375745    0.9465217821   -0.9693318123
C       -0.0816427089   -0.1842165514    0.0661322021
N       -1.2789603887    0.7567476740    1.9614646536
O        0.7605871457   -1.8464708102   -1.4477576211
O       -1.0140519064    1.0982479959    3.2925097643
O        1.0259334376   -2.1795320626    0.7664024223
H        1.8516080308   -0.2186079001    2.4163966982
H        0.5821890036    0.9450230411    4.5963468161
H       -2.0569389752    0.7173925215   -0.4022371918
H       -1.4522816788   -0.4912877996   -1.6568422629
H        0.7341399853    0.7258232669   -1.8073131836
H        0.1492180355    1.9454372041   -0.5511491194
H        1.4295479348   -2.9881818979    0.3958053656
18   
torsion grid (60,)
C        0.8706021935    0.3679162608    2.4673536483
C        0.2401374273    0.7804261422    3.5995711910
C       -0.1959999150    0.2095747657    1.5251261657
C        0.5160278872   -1.4625458752   -0.2828889027
C       -1.2036198840    0.3169808746   -0.8626987202
C        0.1327283338    0.9768118327   -0.9263080488
C       -0.1020446018   -0.1555844183    0.0865740902
N       -1.3607830285    0.5162805694    2.0613070791
O        0.6557526899   -1.8645020739   -1.4241854329
O       -1.0898207165    0.8820710724    3.3852517218
O        0.9219611067   -2.1857191549    0.7937229421
H        1.9234028365    0.1795661792    2.3160226136
H        0.5791269302    1.0335849538    4.5956536998
H       -2.0267112935    0.8433212562   -0.3943291676
H       -1.4626635060   -0.3729057669   -1.6578331684
H        0.7844848732    0.7369918589   -1.7596453185
H        0.2424812854    1.9681488708   -0.4984533194
H        1.2907839116   -3.0153131733    0.4335905129
18   
torsion grid (75,)
C        0.8688824999    0.5510631969    2.4203774549
C        0.2297211877    0.8019120176    3.5949446264
C       -0.1909735994    0.1828331076    1.5318522885
C        0.4592751025   -1.4963396822   -0.2841568272
C       -1.1706349456    0.3662602589   -0.8634549197
C        0.1961480952    0.9653818960   -0.9107737395
C       -0.0948556659   -0.1604468637    0.0872884741
N       -1.3628670077    0.2282623361    2.1331512729
O        0.5914780374   -1.8994961818   -1.4259547210
O       -1.1010691824    0.6205262626    3.4512009133
O        0.8150831908   -2.2398786644    0.7948885395
H        1.9273442437    0.5984200699    2.2080761989
H        0.5611895744    1.1101063227    4.5779591622
H       -1.9723875750    0.9243369378   -0.3942233480
H       -1.4567177290   -0.3030779076   -1.6668549678
H        0.8398097579    0.7053626460   -1.7443414131
H        0.3462863222    1.9497433995   -0.4785415134
H        1.1461584305   -3.0872993083    0.4397544590
18   
torsion grid (90,)
C        0.8324364726    0.7237178560    2.3790541600
C        0.2183104019    0.8277982132    3.5895151253
C       -0.1718796315    0.1450537654    1.5406392020
C        0.4086892273   -1.5440007156   -0.2886041700
C       -1.1178202235    0.4079503636   -0.8605239289
C        0.2801647619    0.9336534465   -0.8916746174
C       -0.0782491272   -0.1833529660    0.0914214540
N       -1.2943188735   -0.0589487220    2.2005930828
O        0.4961392222   -1.9533117261   -1.4325744263
O       -1.0487290054    0.3687183717    3.5105928053
O        0.7644085566   -2.2953758016    0.7834340649
H        1.8436003837    0.9968823866    2.1128529929
H        0.5294162665    1.1926611796    4.5596804552
H       -1.8921485668    1.0050281808   -0.3923876270
H       -1.4346042125   -0.2361186756   -1.6730968088
H        0.9134886991    0.6489718290   -1.7249840631
H        0.4784079914    1.9057202954   -0.4510372580
H        1.0542574044   -3.1563147377    0.4249803658
18   
torsion grid (105,)
C        0.7428792623    0.8778786554    2.3449378142
C        0.1774853168    0.8679007597    3.5839719940
C       -0.1665646232    0.1081280389    1.5536315556
C        0.3254669456   -1.5847072492   -0.3047819058
C       -1.0909891715    0.4590485618   -0.8416884482
C        0.3352416530    0.9020989111   -0.8697406825
C       -0.0851676430   -0.2048063022    0.0995371009
N       -1.1961212789   -0.3057684985    2.2655206288
O        0.3333745306   -1.9928445076   -1.4526745347
O       -0.9757819004    0.1682715213    3.5636456200
O        0.7209466132   -2.3480149585    0.7428857870
H        1.6698440041    1.3386806723    2.0346441731
H        0.4575213510    1.2913982757    4.5396436152
H       -1.8264995671    1.0973423937   -0.3647425946
H       -1.4476236388   -0.1557804203   -1.6604310263
H        0.9479271710    0.5930296379   -1.7096141057
H        0.5900898204    1.8570761618   -0.4211853449
H        0.9608177744   -3.2171481614    0.3678538285
18   
torsion grid (120,)
C        0.6400469114    0.9982712016    2.3271322287
C        0.1306590604    0.9004117936    3.5867743049
C       -0.1342325624    0.0583557895    1.5761058970
C        0.2674274559   -1.6381920524   -0.3099958889
C       -1.0386887621    0.4892847898   -0.8073230186
C        0.4110022926    0.8457116502   -0.8450546079
C       -0.0666385030   -0.2435661146    0.1188174556
N       -1.0418685456   -0.5301583581    2.3305269958
O        0.1687751022   -2.0460123549   -1.4540214177
O       -0.8690668864   -0.0035037617    3.6152030752
O        0.7390802779   -2.4077145723    0.6991266259
H        1.4556992164    1.6187179659    1.9847898642
H        0.3620893371    1.3815606531    4.5280406746
H       -1.7278196962    1.1692759338   -0.3182947475
H       -1.4409098140   -0.0965478952   -1.6262009974
H        0.9964835775    0.5076315700   -1.6930153142
H        0.7273434184    1.7821571733   -0.3974251347
H        0.9247346779   -3.2822891299    0.3065113416
18   
torsion grid (135,)
C        0.5084222296    1.0924186591    2.3024883243
C        0.0664243185    0.9230066127    3.5797298661
C       -0.1006511406    0.0114990155    1.5877831341
C        0.2075784182   -1.6886236460   -0.3218044043
C       -0.9781694263    0.5200978897   -0.7818587414
C        0.4912896358    0.7817324532   -0.8327509255
C       -0.0474607980   -0.2823257629    0.1288764264
N       -0.8579591234   -0.7215581992    2.3810593130
O       -0.0132735160   -2.0951980378   -1.4491866589
O       -0.7447418338   -0.1500967395    3.6536479795
O        0.7728157220   -2.4626618521    0.6324708400
H        1.1843348620    1.8494034627    1.9323032850
H        0.2374068199    1.4543574346    4.5068221661
H       -1.6146335963    1.2419477132   -0.2811959642
H       -1.4274793546   -0.0324535123   -1.5993756763
H        1.0446833027    0.4113788181   -1.6887290846
H        0.8766843553    1.6932081887   -0.3887096601
H        0.9010056362   -3.3408627075    0.2252620389
18   
torsion grid (150,)
C        0.3411367506    1.1735747631    2.2637048630
C       -0.0092536002    0.9615849437    3.5621549225
C       -0.0845041659   -0.0227276003    1.5984459861
C        0.1194401331   -1.7430067011   -0.3152660864
C       -0.9242339599    0.5436068043   -0.7632029587
C        0.5607129074    0.6986408677   -0.8234827412
C       -0.0502724542   -0.3240786862    0.1419737106
N       -0.6564974804   -0.8606319392    2.4415607150
O       -0.2381406141   -2.1552533275   -1.4047381968
O       -0.6013526218   -0.2404338035    3.6962878144
O        0.7879206621   -2.5145448412    0.5702113949
H        0.8423737644    2.0368986374    1.8510396310
H        0.0981064333    1.5430325383    4.4685333267
H       -1.5033959798    1.3106636547   -0.2600465556
H       -1.4177996239    0.0254992982   -1.5777257772
H        1.0795420154    0.2886765033   -1.6832091842
H        1.0216424454    1.5768206249   -0.3846705934
H        0.8517205262   -3.3994685227    0.1622843257
18   
torsion grid (165,)
C       -0.8742557071    0.9119215567    2.2528235826
C       -0.9085799508    0.5803030213    3.5719044940
C       -0.0063456761   -0.0756273664    1.6769529020
C        1.4808785688   -1.1034274078   -0.1762020303
C       -0.8729801836   -0.2798152245   -0.7271746003
C        0.0402002168    0.9036939623   -0.7326974800
C        0.3115079122   -0.2562352732    0.2361448170
N        0.4184308770   -0.9279740468    2.5893154643
O        1.5409309851   -1.7136548553   -1.2291544890
O       -0.1489606278   -0.5075795784    3.8010903872
O        2.5108710601   -1.0552354191    0.6954040547
H       -1.3795338673    1.7354592636    1.7690220159
H       -1.4026059566    1.0069121733    4.4351274331
H       -1.8525997089   -0.1771903058   -0.2725417366
H       -0.7980728211   -0.9859363772   -1.5463590415
H        0.7343207681    1.0055791495   -1.5601362284
H       -0.2899884870    1.8397046499   -0.2948572349
H        3.2107916212   -1.6224650962    0.3184336989
18   
torsion grid (180,)
C       -1.0701626139    0.7034054788    2.2264440669
C       -0.8188037034    0.6354616597    3.5609615697
C        0.0303365388   -0.0066744381    1.6347900991
C        1.4766332816   -0.9301405248   -0.3203707468
C       -0.9303640863   -0.2534370741   -0.7606582301
C       -0.1290657766    1.0066177074   -0.7148933868
C        0.2858195919   -0.1606113531    0.1776692535
N        0.8674535944   -0.4403229223    2.5574839734
O        2.0449761730   -0.6919688162   -1.3720525557
O        0.3252165601   -0.0367489495    3.7880579855
O        1.8134152478   -1.9741281817    0.4643569236
H       -1.9112141973    1.1761782356    1.7394489740
H       -1.3388690593    1.0015262447    4.4366312224
H       -1.9032733853   -0.2893361597   -0.2811946360
H       -0.8200026232   -0.8967352873   -1.6273711881
H        0.5347454197    1.2155207461   -1.5457818626
H       -0.5420734974    1.8725380003   -0.2092533223
H        2.5788045285   -2.4005891483    0.0324815216
