
  -OEChem-05262117483D

 65 70  0     0  0  0  0  0  0999 V2000
   -1.0003  -10.3096   -1.1491 C   0  0  0  0  0  0  0  0  0  0  0  0
   -1.1294   -8.9185   -1.2229 C   0  0  0  0  0  0  0  0  0  0  0  0
   -0.6851  -10.9147    0.0730 C   0  0  0  0  0  0  0  0  0  0  0  0
   -0.9497   -8.1362   -0.0792 C   0  0  0  0  0  0  0  0  0  0  0  0
   -0.4962  -10.1335    1.2150 C   0  0  0  0  0  0  0  0  0  0  0  0
   -2.5118   -8.6178    5.4612 C   0  0  0  0  0  0  0  0  0  0  0  0
   -3.1204   -9.2906    3.2152 C   0  0  0  0  0  0  0  0  0  0  0  0
   -3.6175   -9.2950    5.9643 C   0  0  0  0  0  0  0  0  0  0  0  0
   -4.2292   -9.9653    3.7206 C   0  0  0  0  0  0  0  0  0  0  0  0
    2.4670   -5.6630    1.9684 C   0  0  0  0  0  0  0  0  0  0  0  0
    1.5730   -6.6093    1.5765 C   0  0  0  0  0  0  0  0  0  0  0  0
   -2.2391   -8.6073    4.0770 C   0  0  0  0  0  0  0  0  0  0  0  0
   -0.6337   -8.7359    1.1529 C   0  0  0  0  0  0  0  0  0  0  0  0
   -4.4893   -9.9785    5.1001 C   0  0  0  0  0  0  0  0  0  0  0  0
   -1.0679   -7.8659    3.6025 C   0  0  0  0  0  0  0  0  0  0  0  0
   -0.4383   -7.9160    2.3602 C   0  0  0  0  0  0  0  0  0  0  0  0
    2.3288   -5.1054    3.2887 C   0  0  0  0  0  0  0  0  0  0  0  0
    0.5265   -6.4146    3.7520 C   0  0  0  0  0  0  0  0  0  0  0  0
    6.4839   -3.1192    3.9282 C   0  0  0  0  0  0  0  0  0  0  0  0
    7.7938   -3.7943    4.3270 C   0  0  0  0  0  0  0  0  0  0  0  0
    7.4353   -4.6236    5.5706 C   0  0  0  0  0  0  0  0  0  0  0  0
   -6.7130  -12.4100    6.4153 C   0  0  0  0  0  0  0  0  0  0  0  0
   -5.7521  -11.3430    7.0137 C   0  0  0  0  0  0  0  0  0  0  0  0
   -6.3411  -11.8991    4.9936 C   0  0  0  0  0  0  0  0  0  0  0  0
    6.1985   -3.9065    6.1516 C   0  0  0  0  0  0  0  0  0  0  0  0
   -5.7240  -10.6285    5.6359 C   0  0  0  0  0  0  0  0  0  0  0  0
    4.3238   -2.5964    5.0140 C   0  0  0  0  0  0  0  0  0  0  0  0
    3.1533   -3.5642    4.9093 C   0  0  0  0  0  0  0  0  0  0  0  0
   -0.4651   -6.9499    4.4434 N   0  0  0  0  0  0  0  0  0  0  0  0
    1.4039   -5.4660    4.1482 N   0  0  0  0  0  0  0  0  0  0  0  0
    0.5845   -6.9773    2.4562 N   0  0  0  0  0  0  0  0  0  0  0  0
    5.6100   -3.2588    4.9832 N   0  0  0  0  0  0  0  0  0  0  0  0
   -6.8247   -9.5174    5.6527 N   0  3  0  0  0  0  0  0  0  0  0  0
    6.2434   -2.5315    2.8803 O   0  0  0  0  0  0  0  0  0  0  0  0
    3.2312   -4.1688    3.6003 O   0  0  0  0  0  0  0  0  0  0  0  0
   -1.1389  -10.9175   -2.0389 H   0  0  0  0  0  0  0  0  0  0  0  0
   -1.3748   -8.4433   -2.1688 H   0  0  0  0  0  0  0  0  0  0  0  0
   -0.5721  -11.9939    0.1328 H   0  0  0  0  0  0  0  0  0  0  0  0
   -1.0725   -7.0573   -0.1350 H   0  0  0  0  0  0  0  0  0  0  0  0
   -0.2376  -10.5999    2.1618 H   0  0  0  0  0  0  0  0  0  0  0  0
   -1.8370   -8.0840    6.1216 H   0  0  0  0  0  0  0  0  0  0  0  0
   -2.9448   -9.2893    2.1460 H   0  0  0  0  0  0  0  0  0  0  0  0
   -3.7906   -9.3062    7.0392 H   0  0  0  0  0  0  0  0  0  0  0  0
   -4.8868  -10.4933    3.0326 H   0  0  0  0  0  0  0  0  0  0  0  0
    3.2665   -5.3274    1.3194 H   0  0  0  0  0  0  0  0  0  0  0  0
    1.5871   -7.1000    0.6101 H   0  0  0  0  0  0  0  0  0  0  0  0
    8.1903   -4.3783    3.4946 H   0  0  0  0  0  0  0  0  0  0  0  0
    8.5200   -3.0040    4.5490 H   0  0  0  0  0  0  0  0  0  0  0  0
    7.1605   -5.6405    5.2754 H   0  0  0  0  0  0  0  0  0  0  0  0
    8.2465   -4.6925    6.2985 H   0  0  0  0  0  0  0  0  0  0  0  0
   -7.7627  -12.2409    6.6746 H   0  0  0  0  0  0  0  0  0  0  0  0
   -6.4759  -13.4516    6.6329 H   0  0  0  0  0  0  0  0  0  0  0  0
   -6.0883  -10.7669    7.8816 H   0  0  0  0  0  0  0  0  0  0  0  0
   -4.7640  -11.7501    7.2338 H   0  0  0  0  0  0  0  0  0  0  0  0
   -5.5522  -12.4952    4.5322 H   0  0  0  0  0  0  0  0  0  0  0  0
   -7.1437  -11.7637    4.2616 H   0  0  0  0  0  0  0  0  0  0  0  0
    5.4931   -4.6044    6.6151 H   0  0  0  0  0  0  0  0  0  0  0  0
    6.4749   -3.1579    6.9089 H   0  0  0  0  0  0  0  0  0  0  0  0
    4.2976   -1.8970    4.1745 H   0  0  0  0  0  0  0  0  0  0  0  0
    4.2178   -2.0248    5.9455 H   0  0  0  0  0  0  0  0  0  0  0  0
    2.1984   -3.0388    5.0095 H   0  0  0  0  0  0  0  0  0  0  0  0
    3.1902   -4.3492    5.6699 H   0  0  0  0  0  0  0  0  0  0  0  0
   -7.7299   -9.8487    6.0113 H   0  0  0  0  0  0  0  0  0  0  0  0
   -6.9623   -9.1535    4.7019 H   0  0  0  0  0  0  0  0  0  0  0  0
   -6.5104   -8.7305    6.2339 H   0  0  0  0  0  0  0  0  0  0  0  0
  1  2  1  0  0  0  0
  1  3  2  0  0  0  0
  1 36  1  0  0  0  0
  2  4  2  0  0  0  0
  2 37  1  0  0  0  0
  3  5  1  0  0  0  0
  3 38  1  0  0  0  0
  4 13  1  0  0  0  0
  4 39  1  0  0  0  0
  5 13  2  0  0  0  0
  5 40  1  0  0  0  0
  6  8  2  0  0  0  0
  6 12  1  0  0  0  0
  6 41  1  0  0  0  0
  7  9  1  0  0  0  0
  7 12  2  0  0  0  0
  7 42  1  0  0  0  0
  8 14  1  0  0  0  0
  8 43  1  0  0  0  0
  9 14  2  0  0  0  0
  9 44  1  0  0  0  0
 10 11  2  0  0  0  0
 10 17  1  0  0  0  0
 10 45  1  0  0  0  0
 11 31  1  0  0  0  0
 11 46  1  0  0  0  0
 12 15  1  0  0  0  0
 13 16  1  0  0  0  0
 14 26  1  0  0  0  0
 15 16  2  0  0  0  0
 15 29  1  0  0  0  0
 16 31  1  0  0  0  0
 17 30  2  0  0  0  0
 17 35  1  0  0  0  0
 18 29  2  0  0  0  0
 18 30  1  0  0  0  0
 18 31  1  0  0  0  0
 19 20  1  0  0  0  0
 19 32  1  0  0  0  0
 19 34  2  0  0  0  0
 20 21  1  0  0  0  0
 20 47  1  0  0  0  0
 20 48  1  0  0  0  0
 21 25  1  0  0  0  0
 21 49  1  0  0  0  0
 21 50  1  0  0  0  0
 22 23  1  0  0  0  0
 22 24  1  0  0  0  0
 22 51  1  0  0  0  0
 22 52  1  0  0  0  0
 23 26  1  0  0  0  0
 23 53  1  0  0  0  0
 23 54  1  0  0  0  0
 24 26  1  0  0  0  0
 24 55  1  0  0  0  0
 24 56  1  0  0  0  0
 25 32  1  0  0  0  0
 25 57  1  0  0  0  0
 25 58  1  0  0  0  0
 26 33  1  0  0  0  0
 27 28  1  0  0  0  0
 27 32  1  0  0  0  0
 27 59  1  0  0  0  0
 27 60  1  0  0  0  0
 28 35  1  0  0  0  0
 28 61  1  0  0  0  0
 28 62  1  0  0  0  0
 33 63  1  0  0  0  0
 33 64  1  0  0  0  0
 33 65  1  0  0  0  0
M  CHG  1  33   1
M  END
$$$$
