
  -OEChem-05262117483D

 64 69  0     0  0  0  0  0  0999 V2000
    9.9966   -4.7290    1.4494 C   0  0  0  0  0  0  0  0  0  0  0  0
    8.9785   -3.8628    1.0376 C   0  0  0  0  0  0  0  0  0  0  0  0
    9.6677   -5.9928    1.9538 C   0  0  0  0  0  0  0  0  0  0  0  0
    7.6416   -4.2593    1.1260 C   0  0  0  0  0  0  0  0  0  0  0  0
    8.3322   -6.3849    2.0543 C   0  0  0  0  0  0  0  0  0  0  0  0
    5.0546   -9.4389    0.5389 C   0  0  0  0  0  0  0  0  0  0  0  0
    6.8072   -8.0638   -0.3921 C   0  0  0  0  0  0  0  0  0  0  0  0
    5.5051  -10.5190   -0.2184 C   0  0  0  0  0  0  0  0  0  0  0  0
    7.2495   -9.1489   -1.1480 C   0  0  0  0  0  0  0  0  0  0  0  0
    3.9088   -3.5836    3.7804 C   0  0  0  0  0  0  0  0  0  0  0  0
    5.0273   -4.0485    3.1526 C   0  0  0  0  0  0  0  0  0  0  0  0
    5.7067   -8.1945    0.4736 C   0  0  0  0  0  0  0  0  0  0  0  0
    7.3004   -5.5252    1.6363 C   0  0  0  0  0  0  0  0  0  0  0  0
    6.6107  -10.3954   -1.0732 C   0  0  0  0  0  0  0  0  0  0  0  0
    5.2084   -7.0794    1.2920 C   0  0  0  0  0  0  0  0  0  0  0  0
    5.8973   -5.9510    1.7349 C   0  0  0  0  0  0  0  0  0  0  0  0
    2.7053   -4.3532    3.6585 C   0  0  0  0  0  0  0  0  0  0  0  0
    3.7328   -5.9430    2.3921 C   0  0  0  0  0  0  0  0  0  0  0  0
    0.1621   -2.5560    7.0001 C   0  0  0  0  0  0  0  0  0  0  0  0
    0.7314   -2.8679    8.3827 C   0  0  0  0  0  0  0  0  0  0  0  0
    0.2888   -4.3130    8.6601 C   0  0  0  0  0  0  0  0  0  0  0  0
    8.3660  -13.2739   -2.0507 C   0  0  0  0  0  0  0  0  0  0  0  0
    7.0086  -12.9848   -1.3548 C   0  0  0  0  0  0  0  0  0  0  0  0
    8.5711  -11.7430   -2.2073 C   0  0  0  0  0  0  0  0  0  0  0  0
    0.1052   -4.9125    7.2514 C   0  0  0  0  0  0  0  0  0  0  0  0
    7.0462  -11.5470   -1.9541 C   0  0  0  0  0  0  0  0  0  0  0  0
   -0.6299   -3.8496    5.0487 C   0  0  0  0  0  0  0  0  0  0  0  0
    0.3944   -4.5742    4.1845 C   0  0  0  0  0  0  0  0  0  0  0  0
    3.8904   -7.0610    1.7076 N   0  0  0  0  0  0  0  0  0  0  0  0
    2.6153   -5.4840    3.0011 N   0  0  0  0  0  0  0  0  0  0  0  0
    4.9446   -5.2112    2.4375 N   0  0  0  0  0  0  0  0  0  0  0  0
   -0.2346   -3.7483    6.4390 N   0  0  0  0  0  0  0  0  0  0  0  0
    6.3459  -11.5608   -3.2569 N   0  0  0  0  0  0  0  0  0  0  0  0
    0.0781   -1.4529    6.4717 O   0  0  0  0  0  0  0  0  0  0  0  0
    1.6276   -3.8389    4.2869 O   0  0  0  0  0  0  0  0  0  0  0  0
   11.0370   -4.4234    1.3756 H   0  0  0  0  0  0  0  0  0  0  0  0
    9.2251   -2.8837    0.6349 H   0  0  0  0  0  0  0  0  0  0  0  0
   10.4531   -6.6716    2.2761 H   0  0  0  0  0  0  0  0  0  0  0  0
    6.8574   -3.5960    0.7688 H   0  0  0  0  0  0  0  0  0  0  0  0
    8.0767   -7.3644    2.4479 H   0  0  0  0  0  0  0  0  0  0  0  0
    4.1929   -9.5400    1.1912 H   0  0  0  0  0  0  0  0  0  0  0  0
    7.3132   -7.1089   -0.4867 H   0  0  0  0  0  0  0  0  0  0  0  0
    4.9915  -11.4753   -0.1417 H   0  0  0  0  0  0  0  0  0  0  0  0
    8.1043   -9.0225   -1.8091 H   0  0  0  0  0  0  0  0  0  0  0  0
    3.9167   -2.6646    4.3531 H   0  0  0  0  0  0  0  0  0  0  0  0
    5.9906   -3.5529    3.1871 H   0  0  0  0  0  0  0  0  0  0  0  0
    1.8219   -2.7755    8.3188 H   0  0  0  0  0  0  0  0  0  0  0  0
    0.3808   -2.1374    9.1141 H   0  0  0  0  0  0  0  0  0  0  0  0
    1.0038   -4.8833    9.2575 H   0  0  0  0  0  0  0  0  0  0  0  0
   -0.6705   -4.3163    9.1861 H   0  0  0  0  0  0  0  0  0  0  0  0
    8.2306  -13.7658   -3.0155 H   0  0  0  0  0  0  0  0  0  0  0  0
    9.1151  -13.8166   -1.4678 H   0  0  0  0  0  0  0  0  0  0  0  0
    6.1519  -13.6041   -1.6365 H   0  0  0  0  0  0  0  0  0  0  0  0
    7.1025  -12.9672   -0.2654 H   0  0  0  0  0  0  0  0  0  0  0  0
    9.1695  -11.3251   -1.3927 H   0  0  0  0  0  0  0  0  0  0  0  0
    8.9537  -11.3777   -3.1649 H   0  0  0  0  0  0  0  0  0  0  0  0
    1.0307   -5.3860    6.8936 H   0  0  0  0  0  0  0  0  0  0  0  0
   -0.6932   -5.6617    7.2096 H   0  0  0  0  0  0  0  0  0  0  0  0
   -0.7743   -2.8286    4.6884 H   0  0  0  0  0  0  0  0  0  0  0  0
   -1.5849   -4.3854    4.9653 H   0  0  0  0  0  0  0  0  0  0  0  0
    0.0659   -4.6033    3.1407 H   0  0  0  0  0  0  0  0  0  0  0  0
    0.5585   -5.6060    4.5076 H   0  0  0  0  0  0  0  0  0  0  0  0
    6.5084  -10.6669   -3.7229 H   0  0  0  0  0  0  0  0  0  0  0  0
    5.3402  -11.6026   -3.0849 H   0  0  0  0  0  0  0  0  0  0  0  0
  1  2  1  0  0  0  0
  1  3  2  0  0  0  0
  1 36  1  0  0  0  0
  2  4  2  0  0  0  0
  2 37  1  0  0  0  0
  3  5  1  0  0  0  0
  3 38  1  0  0  0  0
  4 13  1  0  0  0  0
  4 39  1  0  0  0  0
  5 13  2  0  0  0  0
  5 40  1  0  0  0  0
  6  8  2  0  0  0  0
  6 12  1  0  0  0  0
  6 41  1  0  0  0  0
  7  9  1  0  0  0  0
  7 12  2  0  0  0  0
  7 42  1  0  0  0  0
  8 14  1  0  0  0  0
  8 43  1  0  0  0  0
  9 14  2  0  0  0  0
  9 44  1  0  0  0  0
 10 11  2  0  0  0  0
 10 17  1  0  0  0  0
 10 45  1  0  0  0  0
 11 31  1  0  0  0  0
 11 46  1  0  0  0  0
 12 15  1  0  0  0  0
 13 16  1  0  0  0  0
 14 26  1  0  0  0  0
 15 16  2  0  0  0  0
 15 29  1  0  0  0  0
 16 31  1  0  0  0  0
 17 30  2  0  0  0  0
 17 35  1  0  0  0  0
 18 29  2  0  0  0  0
 18 30  1  0  0  0  0
 18 31  1  0  0  0  0
 19 20  1  0  0  0  0
 19 32  1  0  0  0  0
 19 34  2  0  0  0  0
 20 21  1  0  0  0  0
 20 47  1  0  0  0  0
 20 48  1  0  0  0  0
 21 25  1  0  0  0  0
 21 49  1  0  0  0  0
 21 50  1  0  0  0  0
 22 23  1  0  0  0  0
 22 24  1  0  0  0  0
 22 51  1  0  0  0  0
 22 52  1  0  0  0  0
 23 26  1  0  0  0  0
 23 53  1  0  0  0  0
 23 54  1  0  0  0  0
 24 26  1  0  0  0  0
 24 55  1  0  0  0  0
 24 56  1  0  0  0  0
 25 32  1  0  0  0  0
 25 57  1  0  0  0  0
 25 58  1  0  0  0  0
 26 33  1  0  0  0  0
 27 28  1  0  0  0  0
 27 32  1  0  0  0  0
 27 59  1  0  0  0  0
 27 60  1  0  0  0  0
 28 35  1  0  0  0  0
 28 61  1  0  0  0  0
 28 62  1  0  0  0  0
 33 63  1  0  0  0  0
 33 64  1  0  0  0  0
M  END
$$$$
