65
1 1 C28H30N5O2
C                    -1.614935920548   -10.485098106584    -1.215038914406
C                    -1.893139684002    -9.126881434113    -1.403011258765
C                    -1.130108390433   -10.931204417251     0.019838081029
C                    -1.692727605819    -8.219615716133    -0.359397058045
C                    -0.920660680171   -10.024258126511     1.060916988442
C                    -2.646076784692    -8.324185736803     5.342510686597
C                    -3.421371971790    -9.241301067248     3.238593443543
C                    -3.609665944766    -9.062829327107     6.020641836257
C                    -4.389268856613    -9.976613360009     3.919439902015
C                     1.619023851543    -5.236116840795     1.110516879525
C                     0.793442472854    -6.295438756829     0.892771681183
C                    -2.530160543154    -8.404617100879     3.938931594226
C                    -1.206613936952    -8.659219968203     0.884859598157
C                    -4.492621896701    -9.899310100011     5.317169284288
C                    -1.502074756633    -7.596004757844     3.277647642459
C                    -0.989530654632    -7.707119340625     1.986462233563
C                     1.546074857431    -4.568450673194     2.383828275067
C                    -0.066528206551    -5.987806591423     3.134418030319
C                     5.383557745721    -2.837812589748     4.845161643612
C                     6.708858299204    -3.461884128006     4.417844425989
C                     6.927814905892    -2.943940354665     2.986109967990
C                    -6.283972285732   -12.425813748175     7.048157196204
C                    -5.370756377484   -11.233643607937     7.453984035167
C                    -6.139410025455   -11.987060995155     5.562557938100
C                     5.504124296043    -2.620352078162     2.485755150822
C                    -5.582252289307   -10.621056479884     6.043240095034
C                     3.442550516903    -1.774295981217     3.776716723049
C                     2.355315053350    -2.836806729706     3.812516810209
N                    -0.927142894622    -6.546338367949     3.967175649955
N                     0.739976989873    -4.927293735617     3.354416031299
N                    -0.068673617966    -6.667560378331     1.893333135315
N                     4.785531865264    -2.319431133936     3.723190675736
N                    -6.778805398003    -9.619536606447     6.133289196704
O                     4.898684066061    -2.811336493913     5.973202364054
O                     2.377603711708    -3.526918297955     2.533001960186
H                    -1.770186973094   -11.190212780107    -2.026942284598
H                    -2.271430940269    -8.775196117894    -2.358988051202
H                    -0.901750013954   -11.983419605057     0.166885489782
H                    -1.932089936639    -7.168396683259    -0.500898610253
H                    -0.531113512418   -10.366148843528     2.015950437832
H                    -1.964024548320    -7.672838431276     5.878278529546
H                    -3.365086233572    -9.312692766914     2.158735260651
H                    -3.659903785436    -9.001436679550     7.106581773455
H                    -5.058676027821   -10.622174721290     3.354177679300
H                     2.317445777461    -4.898635508760     0.354801185721
H                     0.771886111087    -6.874036922601    -0.023634816389
H                     7.500160858794    -3.195670022574     5.121060051840
H                     6.591313504216    -4.551334431023     4.452938754795
H                     7.523377439975    -2.026820976014     3.008489962334
H                     7.437018761962    -3.659686499981     2.336848779571
H                    -7.306425203099   -12.336831287842     7.428172083190
H                    -5.917858085013   -13.422230130758     7.296244378618
H                    -5.655682866432   -10.630061250348     8.321579025739
H                    -4.327086745450   -11.529962393213     7.570123494236
H                    -5.354931666380   -12.539185615725     5.042659532313
H                    -7.033353050977   -11.980951850636     4.930735826993
H                     5.479827177333    -1.761282746299     1.807365212339
H                     5.046819198570    -3.473051698648     1.966828123890
H                     3.295113956522    -1.107236404160     2.922051664318
H                     3.353114625785    -1.184685203766     4.694053149025
H                     1.367536620881    -2.388457739561     3.955782385233
H                     2.533267337266    -3.554510153355     4.614949225982
H                    -7.595349266033   -10.007301050261     6.623744986839
H                    -7.067215725117    -9.339382608008     5.187841406185
H                    -6.478383489054    -8.766821602779     6.621691244793
