
  -OEChem-05262117483D

 65 70  0     0  0  0  0  0  0999 V2000
   -1.6149  -10.4851   -1.2150 C   0  0  0  0  0  0  0  0  0  0  0  0
   -1.8931   -9.1269   -1.4030 C   0  0  0  0  0  0  0  0  0  0  0  0
   -1.1301  -10.9312    0.0198 C   0  0  0  0  0  0  0  0  0  0  0  0
   -1.6927   -8.2196   -0.3594 C   0  0  0  0  0  0  0  0  0  0  0  0
   -0.9207  -10.0243    1.0609 C   0  0  0  0  0  0  0  0  0  0  0  0
   -2.6461   -8.3242    5.3425 C   0  0  0  0  0  0  0  0  0  0  0  0
   -3.4214   -9.2413    3.2386 C   0  0  0  0  0  0  0  0  0  0  0  0
   -3.6097   -9.0628    6.0206 C   0  0  0  0  0  0  0  0  0  0  0  0
   -4.3893   -9.9766    3.9194 C   0  0  0  0  0  0  0  0  0  0  0  0
    1.6190   -5.2361    1.1105 C   0  0  0  0  0  0  0  0  0  0  0  0
    0.7934   -6.2954    0.8928 C   0  0  0  0  0  0  0  0  0  0  0  0
   -2.5302   -8.4046    3.9389 C   0  0  0  0  0  0  0  0  0  0  0  0
   -1.2066   -8.6592    0.8849 C   0  0  0  0  0  0  0  0  0  0  0  0
   -4.4926   -9.8993    5.3172 C   0  0  0  0  0  0  0  0  0  0  0  0
   -1.5021   -7.5960    3.2776 C   0  0  0  0  0  0  0  0  0  0  0  0
   -0.9895   -7.7071    1.9865 C   0  0  0  0  0  0  0  0  0  0  0  0
    1.5461   -4.5685    2.3838 C   0  0  0  0  0  0  0  0  0  0  0  0
   -0.0665   -5.9878    3.1344 C   0  0  0  0  0  0  0  0  0  0  0  0
    5.3836   -2.8378    4.8452 C   0  0  0  0  0  0  0  0  0  0  0  0
    6.7089   -3.4619    4.4178 C   0  0  0  0  0  0  0  0  0  0  0  0
    6.9278   -2.9439    2.9861 C   0  0  0  0  0  0  0  0  0  0  0  0
   -6.2840  -12.4258    7.0482 C   0  0  0  0  0  0  0  0  0  0  0  0
   -5.3708  -11.2336    7.4540 C   0  0  0  0  0  0  0  0  0  0  0  0
   -6.1394  -11.9871    5.5626 C   0  0  0  0  0  0  0  0  0  0  0  0
    5.5041   -2.6204    2.4858 C   0  0  0  0  0  0  0  0  0  0  0  0
   -5.5823  -10.6211    6.0432 C   0  0  0  0  0  0  0  0  0  0  0  0
    3.4426   -1.7743    3.7767 C   0  0  0  0  0  0  0  0  0  0  0  0
    2.3553   -2.8368    3.8125 C   0  0  0  0  0  0  0  0  0  0  0  0
   -0.9271   -6.5463    3.9672 N   0  0  0  0  0  0  0  0  0  0  0  0
    0.7400   -4.9273    3.3544 N   0  0  0  0  0  0  0  0  0  0  0  0
   -0.0687   -6.6676    1.8933 N   0  0  0  0  0  0  0  0  0  0  0  0
    4.7855   -2.3194    3.7232 N   0  0  0  0  0  0  0  0  0  0  0  0
   -6.7788   -9.6195    6.1333 N   0  3  0  0  0  0  0  0  0  0  0  0
    4.8987   -2.8113    5.9732 O   0  0  0  0  0  0  0  0  0  0  0  0
    2.3776   -3.5269    2.5330 O   0  0  0  0  0  0  0  0  0  0  0  0
   -1.7702  -11.1902   -2.0269 H   0  0  0  0  0  0  0  0  0  0  0  0
   -2.2714   -8.7752   -2.3590 H   0  0  0  0  0  0  0  0  0  0  0  0
   -0.9018  -11.9834    0.1669 H   0  0  0  0  0  0  0  0  0  0  0  0
   -1.9321   -7.1684   -0.5009 H   0  0  0  0  0  0  0  0  0  0  0  0
   -0.5311  -10.3661    2.0160 H   0  0  0  0  0  0  0  0  0  0  0  0
   -1.9640   -7.6728    5.8783 H   0  0  0  0  0  0  0  0  0  0  0  0
   -3.3651   -9.3127    2.1587 H   0  0  0  0  0  0  0  0  0  0  0  0
   -3.6599   -9.0014    7.1066 H   0  0  0  0  0  0  0  0  0  0  0  0
   -5.0587  -10.6222    3.3542 H   0  0  0  0  0  0  0  0  0  0  0  0
    2.3174   -4.8986    0.3548 H   0  0  0  0  0  0  0  0  0  0  0  0
    0.7719   -6.8740   -0.0236 H   0  0  0  0  0  0  0  0  0  0  0  0
    7.5002   -3.1957    5.1211 H   0  0  0  0  0  0  0  0  0  0  0  0
    6.5913   -4.5513    4.4529 H   0  0  0  0  0  0  0  0  0  0  0  0
    7.5234   -2.0268    3.0085 H   0  0  0  0  0  0  0  0  0  0  0  0
    7.4370   -3.6597    2.3368 H   0  0  0  0  0  0  0  0  0  0  0  0
   -7.3064  -12.3368    7.4282 H   0  0  0  0  0  0  0  0  0  0  0  0
   -5.9179  -13.4222    7.2962 H   0  0  0  0  0  0  0  0  0  0  0  0
   -5.6557  -10.6301    8.3216 H   0  0  0  0  0  0  0  0  0  0  0  0
   -4.3271  -11.5300    7.5701 H   0  0  0  0  0  0  0  0  0  0  0  0
   -5.3549  -12.5392    5.0427 H   0  0  0  0  0  0  0  0  0  0  0  0
   -7.0334  -11.9810    4.9307 H   0  0  0  0  0  0  0  0  0  0  0  0
    5.4798   -1.7613    1.8074 H   0  0  0  0  0  0  0  0  0  0  0  0
    5.0468   -3.4731    1.9668 H   0  0  0  0  0  0  0  0  0  0  0  0
    3.2951   -1.1072    2.9221 H   0  0  0  0  0  0  0  0  0  0  0  0
    3.3531   -1.1847    4.6941 H   0  0  0  0  0  0  0  0  0  0  0  0
    1.3675   -2.3885    3.9558 H   0  0  0  0  0  0  0  0  0  0  0  0
    2.5333   -3.5545    4.6149 H   0  0  0  0  0  0  0  0  0  0  0  0
   -7.5953  -10.0073    6.6237 H   0  0  0  0  0  0  0  0  0  0  0  0
   -7.0672   -9.3394    5.1878 H   0  0  0  0  0  0  0  0  0  0  0  0
   -6.4784   -8.7668    6.6217 H   0  0  0  0  0  0  0  0  0  0  0  0
  1  2  1  0  0  0  0
  1  3  2  0  0  0  0
  1 36  1  0  0  0  0
  2  4  2  0  0  0  0
  2 37  1  0  0  0  0
  3  5  1  0  0  0  0
  3 38  1  0  0  0  0
  4 13  1  0  0  0  0
  4 39  1  0  0  0  0
  5 13  2  0  0  0  0
  5 40  1  0  0  0  0
  6  8  2  0  0  0  0
  6 12  1  0  0  0  0
  6 41  1  0  0  0  0
  7  9  1  0  0  0  0
  7 12  2  0  0  0  0
  7 42  1  0  0  0  0
  8 14  1  0  0  0  0
  8 43  1  0  0  0  0
  9 14  2  0  0  0  0
  9 44  1  0  0  0  0
 10 11  2  0  0  0  0
 10 17  1  0  0  0  0
 10 45  1  0  0  0  0
 11 31  1  0  0  0  0
 11 46  1  0  0  0  0
 12 15  1  0  0  0  0
 13 16  1  0  0  0  0
 14 26  1  0  0  0  0
 15 16  2  0  0  0  0
 15 29  1  0  0  0  0
 16 31  1  0  0  0  0
 17 30  2  0  0  0  0
 17 35  1  0  0  0  0
 18 29  2  0  0  0  0
 18 30  1  0  0  0  0
 18 31  1  0  0  0  0
 19 20  1  0  0  0  0
 19 32  1  0  0  0  0
 19 34  2  0  0  0  0
 20 21  1  0  0  0  0
 20 47  1  0  0  0  0
 20 48  1  0  0  0  0
 21 25  1  0  0  0  0
 21 49  1  0  0  0  0
 21 50  1  0  0  0  0
 22 23  1  0  0  0  0
 22 24  1  0  0  0  0
 22 51  1  0  0  0  0
 22 52  1  0  0  0  0
 23 26  1  0  0  0  0
 23 53  1  0  0  0  0
 23 54  1  0  0  0  0
 24 26  1  0  0  0  0
 24 55  1  0  0  0  0
 24 56  1  0  0  0  0
 25 32  1  0  0  0  0
 25 57  1  0  0  0  0
 25 58  1  0  0  0  0
 26 33  1  0  0  0  0
 27 28  1  0  0  0  0
 27 32  1  0  0  0  0
 27 59  1  0  0  0  0
 27 60  1  0  0  0  0
 28 35  1  0  0  0  0
 28 61  1  0  0  0  0
 28 62  1  0  0  0  0
 33 63  1  0  0  0  0
 33 64  1  0  0  0  0
 33 65  1  0  0  0  0
M  CHG  1  33   1
M  END
$$$$
