64
0 1 C28H29N5O2
C                    10.043166337345    -5.019284674229     1.638527164485
C                     9.439885123924    -5.138389277254     2.894871805127
C                     9.261561976744    -5.131475190698     0.482488476884
C                     8.065784001535    -5.371864940239     2.993932715318
C                     7.887101135562    -5.352087317706     0.580564657079
C                     4.355988060442    -8.345744516909    -0.363354356353
C                     6.592152313596    -8.426348800222     0.544166022868
C                     4.655937160137    -9.428612082972    -1.188126104494
C                     6.882425487370    -9.511332620035    -0.282313348380
C                     4.140813642032    -3.104385376785     3.943096372335
C                     5.203261979361    -3.742942135748     3.371803609085
C                     5.324715049681    -7.818234674837     0.509201363646
C                     7.270755563413    -5.480791994391     1.838343082206
C                     5.923495462756   -10.029653797271    -1.164952693590
C                     4.975761367390    -6.669857192638     1.358286444486
C                     5.824422376197    -5.723898031721     1.932132752367
C                     2.837041107584    -3.668696218252     3.749873986784
C                     3.655569120275    -5.364354216960     2.468228769854
C                    -1.149148022428    -3.380326124481     7.221119058559
C                    -0.757953774732    -3.058575018959     8.661817450417
C                     0.637641134219    -2.425212970419     8.543719093733
C                     6.993973683249   -11.916539342199    -3.924951859467
C                     7.644709085291   -11.405007042901    -2.611458000986
C                     5.645551811067   -11.310643411262    -3.450717800930
C                     0.667412591173    -1.856986349887     7.110085132969
C                     6.218278782145   -11.255736894068    -2.002638027287
C                    -0.468503789027    -2.669144164358     4.958373498557
C                     0.493708039187    -3.555853501455     4.184950021837
N                     3.655921605215    -6.431357489465     1.691125834028
N                     2.598708603243    -4.744218894591     3.040415540960
N                     4.976256428546    -4.885390414848     2.657242910680
N                    -0.274315707984    -2.717254130545     6.395326871544
N                     5.867116409429   -12.513910630447    -1.308840316425
O                    -2.086050193673    -4.080027807274     6.847706424583
O                     1.823402118212    -3.007291465912     4.350942630911
H                    11.112788613700    -4.843472531123     1.560551971141
H                    10.040772011554    -5.063741248580     3.797597706526
H                     9.722850265167    -5.040053503887    -0.497441913585
H                     7.609817283188    -5.502150867222     3.972550148335
H                     7.280361410396    -5.436651783343    -0.316188548145
H                     3.370029235563    -7.892086741610    -0.380449674857
H                     7.351283227158    -8.060827960618     1.227642851917
H                     3.893747136621    -9.811368541835    -1.863858446232
H                     7.870997685655    -9.963567025057    -0.237632810358
H                     4.270196369352    -2.196002809134     4.518249679133
H                     6.227585786882    -3.395788036981     3.443317162387
H                    -1.501237365448    -2.357269071951     9.058802590165
H                    -0.795262403242    -3.959490425200     9.277060010880
H                     0.833316414895    -1.655821363660     9.294282575336
H                     1.406679499314    -3.197126392342     8.643458843034
H                     6.958299333886   -13.006719560510    -3.962435751469
H                     7.405658905525   -11.533753196495    -4.862631053362
H                     8.326827093099   -12.080283577849    -2.086413849544
H                     8.126804933852   -10.432528970421    -2.745977890708
H                     5.482455896878   -10.307745920209    -3.855275366019
H                     4.742012871219   -11.911199504927    -3.591074398866
H                     0.328399179987    -0.810266646247     7.078656605205
H                     1.658147325047    -1.905969537849     6.653870675018
H                    -0.380293043695    -1.632347025553     4.612180031055
H                    -1.485610079778    -3.017502892711     4.756225565661
H                     0.241433731509    -3.571616685124     3.120175543200
H                     0.474245425264    -4.581832829295     4.560020747934
H                     4.877526402281   -12.482440953863    -1.059080949900
H                     6.373931363775   -12.549716231634    -0.423137691345
