
  -OEChem-05262117483D

 71 76  0     1  0  0  0  0  0999 V2000
    6.8487   -0.0798    1.1161 C   0  0  0  0  0  0  0  0  0  0  0  0
    3.6585   -0.9918    7.0704 C   0  0  0  0  0  0  0  0  0  0  0  0
    6.2600   -0.1313    2.3792 C   0  0  0  0  0  0  0  0  0  0  0  0
    4.9789   -0.8576    6.6366 C   0  0  0  0  0  0  0  0  0  0  0  0
    8.9740   -0.7408    2.0632 C   0  0  0  0  0  0  0  0  0  0  0  0
    8.1976   -0.4009    0.9386 C   0  0  0  0  0  0  0  0  0  0  0  0
    2.6128   -0.9833    6.1488 C   0  0  0  0  0  0  0  0  0  0  0  0
    7.0084   -0.5203    3.5002 C   0  0  0  0  0  0  0  0  0  0  0  0
    8.3925   -0.8035    3.3198 C   0  0  0  0  0  0  0  0  0  0  0  0
    2.9500   -0.8153    4.7821 C   0  0  0  0  0  0  0  0  0  0  0  0
    5.2105   -0.7141    5.2592 C   0  0  0  0  0  0  0  0  0  0  0  0
    0.2422   -0.8521    5.6450 C   0  0  0  0  0  0  0  0  0  0  0  0
    8.8717   -0.3722   -0.3859 C   0  0  0  0  0  0  0  0  0  0  0  0
    1.7569   -0.7616    0.0771 C   0  0  0  0  0  0  0  0  0  0  0  0
    2.9721   -1.7028    0.3298 C   0  0  0  0  0  0  0  0  0  0  0  0
    1.1074   -0.5471    1.4597 C   0  0  0  0  0  0  0  0  0  0  0  0
    3.0357   -1.8996    1.8598 C   0  0  0  0  0  0  0  0  0  0  0  0
    7.3903   -2.9978   -3.8681 C   0  0  0  0  0  0  0  0  0  0  0  0
    8.6279   -0.8037   -2.8265 C   0  0  0  0  0  0  0  0  0  0  0  0
    6.9268   -1.4498   -1.6794 C   0  0  0  0  0  0  0  0  0  0  0  0
    6.2698   -2.7524   -4.9166 C   0  0  0  0  0  0  0  0  0  0  0  0
    0.6738   -0.2195    4.3237 C   0  0  1  0  0  0  0  0  0  0  0  0
    2.2941   -0.6739    2.4274 C   0  0  0  0  0  0  0  0  0  0  0  0
    7.3693   -1.6317   -3.1454 C   0  0  0  0  0  0  0  0  0  0  0  0
    0.7386    1.3126    4.4763 C   0  0  0  0  0  0  0  0  0  0  0  0
    0.9296   -1.7061    7.8310 C   0  0  0  0  0  0  0  0  0  0  0  0
   10.4646   -1.3798    4.3851 C   0  0  0  0  0  0  0  0  0  0  0  0
    4.2117   -0.6724    4.3692 N   0  0  0  0  0  0  0  0  0  0  0  0
    1.2611   -1.1841    6.5088 N   0  0  0  0  0  0  0  0  0  0  0  0
    1.9281   -0.8162    3.8465 N   0  0  1  0  0  0  0  0  0  0  0  0
    8.0601   -0.5082   -1.4972 N   0  0  0  0  0  0  0  0  0  0  0  0
    6.5219   -0.6194    4.7993 N   0  0  0  0  0  0  0  0  0  0  0  0
   -0.9474   -1.0001    5.9173 O   0  0  0  0  0  0  0  0  0  0  0  0
   10.0906   -0.2294   -0.5175 O   0  0  0  0  0  0  0  0  0  0  0  0
    4.8911   -0.5958   -3.8639 O   0  0  0  0  0  0  0  0  0  0  0  0
    6.8831   -0.1184   -5.3982 O   0  0  0  0  0  0  0  0  0  0  0  0
    9.0622   -1.1348    4.4766 O   0  0  0  0  0  0  0  0  0  0  0  0
    6.1953   -0.9823   -4.4258 S   0  0  0  0  0  0  0  0  0  0  0  0
    6.2503    0.2558    0.2759 H   0  0  0  0  0  0  0  0  0  0  0  0
    3.4574   -1.1162    8.1290 H   0  0  0  0  0  0  0  0  0  0  0  0
    5.2209    0.1260    2.5123 H   0  0  0  0  0  0  0  0  0  0  0  0
    5.8003   -0.8730    7.3467 H   0  0  0  0  0  0  0  0  0  0  0  0
   10.0260   -0.9492    1.9089 H   0  0  0  0  0  0  0  0  0  0  0  0
    2.0947    0.1953   -0.3327 H   0  0  0  0  0  0  0  0  0  0  0  0
    1.0447   -1.1772   -0.6406 H   0  0  0  0  0  0  0  0  0  0  0  0
    2.8668   -2.6583   -0.1923 H   0  0  0  0  0  0  0  0  0  0  0  0
    3.8944   -1.2432   -0.0393 H   0  0  0  0  0  0  0  0  0  0  0  0
    0.5786    0.4079    1.5283 H   0  0  0  0  0  0  0  0  0  0  0  0
    0.3855   -1.3470    1.6634 H   0  0  0  0  0  0  0  0  0  0  0  0
    2.4810   -2.7954    2.1631 H   0  0  0  0  0  0  0  0  0  0  0  0
    4.0522   -1.9898    2.2400 H   0  0  0  0  0  0  0  0  0  0  0  0
    7.1724   -3.8298   -3.1954 H   0  0  0  0  0  0  0  0  0  0  0  0
    8.3576   -3.1734   -4.3435 H   0  0  0  0  0  0  0  0  0  0  0  0
    9.5457   -1.3995   -2.7706 H   0  0  0  0  0  0  0  0  0  0  0  0
    8.7953    0.0714   -3.4601 H   0  0  0  0  0  0  0  0  0  0  0  0
    5.9326   -1.0157   -1.5510 H   0  0  0  0  0  0  0  0  0  0  0  0
    7.0141   -2.3610   -1.0764 H   0  0  0  0  0  0  0  0  0  0  0  0
    6.5499   -2.8786   -5.9626 H   0  0  0  0  0  0  0  0  0  0  0  0
    5.3203   -3.2436   -4.6999 H   0  0  0  0  0  0  0  0  0  0  0  0
   -0.1183   -0.4781    3.6251 H   0  0  0  0  0  0  0  0  0  0  0  0
    2.9351    0.2125    2.3081 H   0  0  0  0  0  0  0  0  0  0  0  0
    1.5061    1.6020    5.2010 H   0  0  0  0  0  0  0  0  0  0  0  0
   -0.2273    1.6973    4.8156 H   0  0  0  0  0  0  0  0  0  0  0  0
    0.9815    1.7797    3.5174 H   0  0  0  0  0  0  0  0  0  0  0  0
    1.1478   -0.9689    8.6123 H   0  0  0  0  0  0  0  0  0  0  0  0
    1.5025   -2.6174    8.0273 H   0  0  0  0  0  0  0  0  0  0  0  0
   -0.1360   -1.9282    7.8450 H   0  0  0  0  0  0  0  0  0  0  0  0
   10.7980   -1.5949    5.4010 H   0  0  0  0  0  0  0  0  0  0  0  0
   10.9941   -0.5002    4.0019 H   0  0  0  0  0  0  0  0  0  0  0  0
   10.6725   -2.2424    3.7414 H   0  0  0  0  0  0  0  0  0  0  0  0
    7.2389   -0.8128    5.4872 H   0  0  0  0  0  0  0  0  0  0  0  0
  1  3  1  0  0  0  0
  1  6  2  0  0  0  0
  1 39  1  0  0  0  0
  2  4  2  0  0  0  0
  2  7  1  0  0  0  0
  2 40  1  0  0  0  0
  3  8  2  0  0  0  0
  3 41  1  0  0  0  0
  4 11  1  0  0  0  0
  4 42  1  0  0  0  0
  5  6  1  0  0  0  0
  5  9  2  0  0  0  0
  5 43  1  0  0  0  0
  6 13  1  0  0  0  0
  7 10  2  0  0  0  0
  7 29  1  0  0  0  0
  8  9  1  0  0  0  0
  8 32  1  0  0  0  0
  9 37  1  0  0  0  0
 10 28  1  0  0  0  0
 10 30  1  0  0  0  0
 11 28  2  0  0  0  0
 11 32  1  0  0  0  0
 12 22  1  0  0  0  0
 12 29  1  0  0  0  0
 12 33  2  0  0  0  0
 13 31  1  0  0  0  0
 13 34  2  0  0  0  0
 14 15  1  0  0  0  0
 14 16  1  0  0  0  0
 14 44  1  0  0  0  0
 14 45  1  0  0  0  0
 15 17  1  0  0  0  0
 15 46  1  0  0  0  0
 15 47  1  0  0  0  0
 16 23  1  0  0  0  0
 16 48  1  0  0  0  0
 16 49  1  0  0  0  0
 17 23  1  0  0  0  0
 17 50  1  0  0  0  0
 17 51  1  0  0  0  0
 18 21  1  0  0  0  0
 18 24  1  0  0  0  0
 18 52  1  0  0  0  0
 18 53  1  0  0  0  0
 19 24  1  0  0  0  0
 19 31  1  0  0  0  0
 19 54  1  0  0  0  0
 19 55  1  0  0  0  0
 20 24  1  0  0  0  0
 20 31  1  0  0  0  0
 20 56  1  0  0  0  0
 20 57  1  0  0  0  0
 21 38  1  0  0  0  0
 21 58  1  0  0  0  0
 21 59  1  0  0  0  0
 22 25  1  0  0  0  0
 22 30  1  0  0  0  0
 22 60  1  0  0  0  0
 23 30  1  0  0  0  0
 23 61  1  0  0  0  0
 24 38  1  0  0  0  0
 25 62  1  0  0  0  0
 25 63  1  0  0  0  0
 25 64  1  0  0  0  0
 26 29  1  0  0  0  0
 26 65  1  0  0  0  0
 26 66  1  0  0  0  0
 26 67  1  0  0  0  0
 27 37  1  0  0  0  0
 27 68  1  0  0  0  0
 27 69  1  0  0  0  0
 27 70  1  0  0  0  0
 32 71  1  0  0  0  0
 35 38  2  0  0  0  0
 36 38  2  0  0  0  0
M  END
$$$$
