
  -OEChem-05262117483D

 29 30  0     0  0  0  0  0  0999 V2000
   -3.1615    0.5149   -5.1785 C   0  0  0  0  0  0  0  0  0  0  0  0
   -1.9540    2.9114   -5.1162 C   0  0  0  0  0  0  0  0  0  0  0  0
   -2.3692    0.9077   -4.0953 C   0  0  0  0  0  0  0  0  0  0  0  0
   -2.7546    2.4959   -6.1948 C   0  0  0  0  0  0  0  0  0  0  0  0
   -2.1786   -0.0265   -2.9273 C   0  0  0  0  0  0  0  0  0  0  0  0
    0.4245   -0.3567   -0.3199 C   0  0  0  0  0  0  0  0  0  0  0  0
   -1.2812    0.4589    0.6244 C   0  0  0  0  0  0  0  0  0  0  0  0
   -1.0636   -0.2437   -0.7401 C   0  0  0  0  0  0  0  0  0  0  0  0
    0.8699    0.6712    1.9198 C   0  0  0  0  0  0  0  0  0  0  0  0
    0.3759    0.6888    3.3563 C   0  0  0  0  0  0  0  0  0  0  0  0
   -1.7677    2.1096   -4.0713 N   0  0  0  0  0  0  0  0  0  0  0  0
   -3.3532    1.3180   -6.2346 N   0  0  0  0  0  0  0  0  0  0  0  0
    0.0024   -0.1276    1.0805 N   0  0  0  0  0  0  0  0  0  0  0  0
   -1.3841    0.4763   -1.9426 N   0  0  0  0  0  0  0  0  0  0  0  0
   -2.7125   -1.1355   -2.9083 O   0  0  0  0  0  0  0  0  0  0  0  0
    1.1138    1.6037    4.0779 F   0  0  0  0  0  0  0  0  0  0  0  0
    0.5505   -0.5353    3.9480 F   0  0  0  0  0  0  0  0  0  0  0  0
   -2.9760    3.5765   -7.5499 Cl  0  0  0  0  0  0  0  0  0  0  0  0
   -3.6414   -0.4588   -5.1843 H   0  0  0  0  0  0  0  0  0  0  0  0
   -1.4742    3.8864   -5.1114 H   0  0  0  0  0  0  0  0  0  0  0  0
    0.9443   -1.3026   -0.5004 H   0  0  0  0  0  0  0  0  0  0  0  0
    1.0194    0.4753   -0.7345 H   0  0  0  0  0  0  0  0  0  0  0  0
   -1.2405    1.5578    0.5225 H   0  0  0  0  0  0  0  0  0  0  0  0
   -2.1623    0.1794    1.2101 H   0  0  0  0  0  0  0  0  0  0  0  0
   -1.5557   -1.2134   -0.7898 H   0  0  0  0  0  0  0  0  0  0  0  0
    0.9513    1.7205    1.5795 H   0  0  0  0  0  0  0  0  0  0  0  0
    1.8752    0.2375    1.9196 H   0  0  0  0  0  0  0  0  0  0  0  0
   -0.6797    0.9589    3.4599 H   0  0  0  0  0  0  0  0  0  0  0  0
   -1.0111    1.4078   -2.0956 H   0  0  0  0  0  0  0  0  0  0  0  0
  1  3  1  0  0  0  0
  1 12  2  0  0  0  0
  1 19  1  0  0  0  0
  2  4  2  0  0  0  0
  2 11  1  0  0  0  0
  2 20  1  0  0  0  0
  3  5  1  0  0  0  0
  3 11  2  0  0  0  0
  4 12  1  0  0  0  0
  4 18  1  0  0  0  0
  5 14  1  0  0  0  0
  5 15  2  0  0  0  0
  6  8  1  0  0  0  0
  6 13  1  0  0  0  0
  6 21  1  0  0  0  0
  6 22  1  0  0  0  0
  7  8  1  0  0  0  0
  7 13  1  0  0  0  0
  7 23  1  0  0  0  0
  7 24  1  0  0  0  0
  8 14  1  0  0  0  0
  8 25  1  0  0  0  0
  9 10  1  0  0  0  0
  9 13  1  0  0  0  0
  9 26  1  0  0  0  0
  9 27  1  0  0  0  0
 10 16  1  0  0  0  0
 10 17  1  0  0  0  0
 10 28  1  0  0  0  0
 14 29  1  0  0  0  0
M  END
$$$$
