41
0 1 C18H21NO
C                    -7.511109926874     0.099990087164    -3.854128406165
C                    -3.235607090164     0.558854347079    -3.313335713387
C                    -7.857547810746    -0.646359794441    -2.721958515948
C                    -6.925076202156     1.359878373580    -3.694258827220
C                    -2.023130256017     1.170850384187    -2.973350018452
C                    -3.756429418194    -0.441487387384    -2.489017554785
C                    -7.613553792889    -0.135653821232    -1.443749542987
C                    -6.681524221898     1.863114613578    -2.413104480362
C                    -1.347889493449     0.794147702031    -1.808501990823
C                    -3.072374494793    -0.816812557759    -1.327883737328
C                    -7.020502792057     1.123996409525    -1.270986280839
C                    -1.868058875010    -0.199730175138    -0.962536907066
C                    -3.393453651093     0.859303651531     2.133269824496
C                    -6.645145966301     1.616530580197     0.109193082119
C                    -1.189631523698    -0.546984981620     0.346010626191
C                    -4.729225573804     1.539804297988     1.855944669840
C                    -5.262860070578     1.064829333146     0.493899294414
C                    -1.074721782506     0.660129461722     1.304497898817
N                    -2.324231067576     1.399355591467     1.461768333933
O                    -3.285756071397    -0.124986741104     2.864586136093
H                    -7.700084987963    -0.294727210730    -4.849104627677
H                    -3.774345622846     0.862024024569    -4.206754525381
H                    -8.318114296161    -1.624638559334    -2.835398874904
H                    -6.656153307375     1.949539100068    -4.567357128488
H                    -1.605130325044     1.943824732333    -3.613984644651
H                    -4.707936949247    -0.905461228984    -2.734508614971
H                    -7.880460305533    -0.724443109272    -0.568122785380
H                    -6.210442186249     2.837301886114    -2.298116854869
H                    -0.407772099681     1.280796840025    -1.554214872956
H                    -3.494406819613    -1.580498861588    -0.678809237338
H                    -7.389908755491     1.296745336262     0.847271950380
H                    -6.624334961219     2.712667524114     0.127308458490
H                    -0.178147920730    -0.933859746249     0.167888635144
H                    -1.751868403258    -1.335988451442     0.851447026278
H                    -4.620373911529     2.631447648952     1.860000252231
H                    -5.414730500972     1.261108764860     2.659741981808
H                    -5.307825094269    -0.029188012621     0.493550376129
H                    -4.555269572682     1.332236246345    -0.296724849409
H                    -0.759340838161     0.311346105700     2.290119764816
H                    -0.322207663744     1.367720430586     0.944684944527
H                    -2.544246748367     2.058236613021     0.725277293644
