
  -OEChem-05262117483D

 31 31  0     0  0  0  0  0  0999 V2000
    1.9304   -0.9915    0.2843 C   0  0  0  0  0  0  0  0  0  0  0  0
    0.8086    1.1171   -0.4705 C   0  0  0  0  0  0  0  0  0  0  0  0
   -0.1108   -1.1072   -1.2782 C   0  0  0  0  0  0  0  0  0  0  0  0
   -0.3667    1.2440    0.5112 C   0  0  0  0  0  0  0  0  0  0  0  0
   -1.3894   -0.2812   -1.1053 C   0  0  0  0  0  0  0  0  0  0  0  0
    1.1734   -0.3322   -0.8739 C   0  0  0  0  0  0  0  0  0  0  0  0
    0.7244   -2.0909    3.5362 C   0  0  0  0  0  0  0  0  0  0  0  0
   -3.4801    0.1525    1.3538 C   0  0  0  0  0  0  0  0  0  0  0  0
    1.8006   -1.8589    2.4926 C   0  0  0  0  0  0  0  0  0  0  0  0
   -1.4206    0.2366    0.2644 N   0  0  0  0  0  0  0  0  0  0  0  0
    3.1404   -1.1620    0.2632 O   0  0  0  0  0  0  0  0  0  0  0  0
    2.0565   -0.2903   -1.9914 O   0  0  0  0  0  0  0  0  0  0  0  0
    1.1445   -1.3035    1.3196 O   0  0  0  0  0  0  0  0  0  0  0  0
   -2.6865    0.9130    0.4480 O   0  0  0  0  0  0  0  0  0  0  0  0
    0.5708    1.6211   -1.4112 H   0  0  0  0  0  0  0  0  0  0  0  0
    1.6894    1.6237   -0.0624 H   0  0  0  0  0  0  0  0  0  0  0  0
   -0.2042   -2.0215   -0.6880 H   0  0  0  0  0  0  0  0  0  0  0  0
    0.0065   -1.3910   -2.3266 H   0  0  0  0  0  0  0  0  0  0  0  0
   -0.0277    1.1320    1.5457 H   0  0  0  0  0  0  0  0  0  0  0  0
   -0.8008    2.2453    0.4067 H   0  0  0  0  0  0  0  0  0  0  0  0
   -1.4609    0.5217   -1.8563 H   0  0  0  0  0  0  0  0  0  0  0  0
   -2.2617   -0.9269   -1.2371 H   0  0  0  0  0  0  0  0  0  0  0  0
    0.2282   -1.1524    3.7994 H   0  0  0  0  0  0  0  0  0  0  0  0
   -0.0323   -2.7888    3.1670 H   0  0  0  0  0  0  0  0  0  0  0  0
    1.1741   -2.5121    4.4410 H   0  0  0  0  0  0  0  0  0  0  0  0
   -4.4169    0.7062    1.4660 H   0  0  0  0  0  0  0  0  0  0  0  0
   -2.9855    0.0542    2.3277 H   0  0  0  0  0  0  0  0  0  0  0  0
   -3.6942   -0.8490    0.9581 H   0  0  0  0  0  0  0  0  0  0  0  0
    2.3040   -2.7849    2.2017 H   0  0  0  0  0  0  0  0  0  0  0  0
    2.5627   -1.1517    2.8312 H   0  0  0  0  0  0  0  0  0  0  0  0
    2.9567   -0.4312   -1.6410 H   0  0  0  0  0  0  0  0  0  0  0  0
  1  6  1  0  0  0  0
  1 11  2  0  0  0  0
  1 13  1  0  0  0  0
  2  4  1  0  0  0  0
  2  6  1  0  0  0  0
  2 15  1  0  0  0  0
  2 16  1  0  0  0  0
  3  5  1  0  0  0  0
  3  6  1  0  0  0  0
  3 17  1  0  0  0  0
  3 18  1  0  0  0  0
  4 10  1  0  0  0  0
  4 19  1  0  0  0  0
  4 20  1  0  0  0  0
  5 10  1  0  0  0  0
  5 21  1  0  0  0  0
  5 22  1  0  0  0  0
  6 12  1  0  0  0  0
  7  9  1  0  0  0  0
  7 23  1  0  0  0  0
  7 24  1  0  0  0  0
  7 25  1  0  0  0  0
  8 14  1  0  0  0  0
  8 26  1  0  0  0  0
  8 27  1  0  0  0  0
  8 28  1  0  0  0  0
  9 13  1  0  0  0  0
  9 29  1  0  0  0  0
  9 30  1  0  0  0  0
 10 14  1  0  0  0  0
 12 31  1  0  0  0  0
M  END
$$$$
