
  -OEChem-05262117483D

 36 37  0     0  0  0  0  0  0999 V2000
   -0.9290    0.7833   -0.9302 C   0  0  0  0  0  0  0  0  0  0  0  0
   -1.9268    0.9594   -1.6047 C   0  0  0  0  0  0  0  0  0  0  0  0
    1.4245    0.0876   -0.7043 C   0  0  0  0  0  0  0  0  0  0  0  0
    0.2280    0.8632    1.2432 C   0  0  0  0  0  0  0  0  0  0  0  0
    0.2383    0.5781   -0.1312 C   0  0  0  0  0  0  0  0  0  0  0  0
    2.5742   -0.1119    0.0620 C   0  0  0  0  0  0  0  0  0  0  0  0
    1.3623    0.6716    2.0373 C   0  0  0  0  0  0  0  0  0  0  0  0
    2.5448    0.1797    1.4450 C   0  0  0  0  0  0  0  0  0  0  0  0
    4.7145    1.1892    2.1927 C   0  0  0  0  0  0  0  0  0  0  0  0
   -2.9376    1.7138   -3.8404 C   0  0  0  0  0  0  0  0  0  0  0  0
   -3.3283    0.2736   -3.6429 C   0  0  0  0  0  0  0  0  0  0  0  0
   -3.0943    1.1633   -2.4250 C   0  0  0  0  0  0  0  0  0  0  0  0
    3.8184   -0.6528   -0.6095 C   0  0  0  0  0  0  0  0  0  0  0  0
    0.8768   -0.3136    4.3252 C   0  0  0  0  0  0  0  0  0  0  0  0
    3.8065   -0.0243    2.2770 C   0  0  0  0  0  0  0  0  0  0  0  0
    1.2464    0.9488    3.5241 C   0  0  0  0  0  0  0  0  0  0  0  0
    5.6294    1.3405    1.4068 O   0  0  0  0  0  0  0  0  0  0  0  0
    4.3820    2.1442    3.1045 O   0  0  0  0  0  0  0  0  0  0  0  0
    1.4409   -0.1370   -1.7672 H   0  0  0  0  0  0  0  0  0  0  0  0
   -0.6850    1.2415    1.6954 H   0  0  0  0  0  0  0  0  0  0  0  0
   -1.9270    1.9284   -4.1714 H   0  0  0  0  0  0  0  0  0  0  0  0
   -3.6930    2.4144   -4.1837 H   0  0  0  0  0  0  0  0  0  0  0  0
   -4.3533   -0.0194   -3.8502 H   0  0  0  0  0  0  0  0  0  0  0  0
   -2.5832   -0.4898   -3.8404 H   0  0  0  0  0  0  0  0  0  0  0  0
   -3.9855    1.4791   -1.8882 H   0  0  0  0  0  0  0  0  0  0  0  0
    4.6824   -0.0012   -0.4569 H   0  0  0  0  0  0  0  0  0  0  0  0
    4.0846   -1.6415   -0.2151 H   0  0  0  0  0  0  0  0  0  0  0  0
    3.6568   -0.7637   -1.6845 H   0  0  0  0  0  0  0  0  0  0  0  0
   -0.0787   -0.7236    3.9824 H   0  0  0  0  0  0  0  0  0  0  0  0
    0.7897   -0.0871    5.3935 H   0  0  0  0  0  0  0  0  0  0  0  0
    1.6298   -1.1002    4.2071 H   0  0  0  0  0  0  0  0  0  0  0  0
    4.3796   -0.8748    1.9069 H   0  0  0  0  0  0  0  0  0  0  0  0
    3.5610   -0.2080    3.3228 H   0  0  0  0  0  0  0  0  0  0  0  0
    2.1691    1.3844    3.9135 H   0  0  0  0  0  0  0  0  0  0  0  0
    0.4677    1.7030    3.6791 H   0  0  0  0  0  0  0  0  0  0  0  0
    4.9838    2.8968    2.9430 H   0  0  0  0  0  0  0  0  0  0  0  0
  1  2  3  0  0  0  0
  1  5  1  0  0  0  0
  2 12  1  0  0  0  0
  3  5  1  0  0  0  0
  3  6  2  0  0  0  0
  3 19  1  0  0  0  0
  4  5  2  0  0  0  0
  4  7  1  0  0  0  0
  4 20  1  0  0  0  0
  6  8  1  0  0  0  0
  6 13  1  0  0  0  0
  7  8  2  0  0  0  0
  7 16  1  0  0  0  0
  8 15  1  0  0  0  0
  9 15  1  0  0  0  0
  9 17  2  0  0  0  0
  9 18  1  0  0  0  0
 10 11  1  0  0  0  0
 10 12  1  0  0  0  0
 10 21  1  0  0  0  0
 10 22  1  0  0  0  0
 11 12  1  0  0  0  0
 11 23  1  0  0  0  0
 11 24  1  0  0  0  0
 12 25  1  0  0  0  0
 13 26  1  0  0  0  0
 13 27  1  0  0  0  0
 13 28  1  0  0  0  0
 14 16  1  0  0  0  0
 14 29  1  0  0  0  0
 14 30  1  0  0  0  0
 14 31  1  0  0  0  0
 15 32  1  0  0  0  0
 15 33  1  0  0  0  0
 16 34  1  0  0  0  0
 16 35  1  0  0  0  0
 18 36  1  0  0  0  0
M  END
$$$$
