41
0 1 C18H21NO
C                   -10.004803270325    -0.351323374883    -2.135430841346
C                     2.781155877139    -1.784129739532     3.882712124871
C                    -9.820917904442     0.063929327310    -0.811844123512
C                    -9.045800282757    -0.023705249875    -3.099177495142
C                     3.187144813665    -0.750644996061     3.032751165787
C                     1.417412726593    -1.977909391021     4.131136059787
C                    -8.686394943089     0.799575456805    -0.458660034554
C                    -7.912635184835     0.712939542852    -2.739144773556
C                     2.234003495600     0.081228791798     2.435579075717
C                     0.469465314602    -1.143830045466     3.532769447415
C                    -7.716967100969     1.135070146464    -1.416191475551
C                     0.865369175972    -0.101975999275     2.678897995747
C                    -3.102790733011     0.800981734659     0.634692532342
C                    -6.467845173617     1.887298784704    -1.015719730040
C                    -0.173873327766     0.757477536409     1.998612348699
C                    -4.108039776462     1.713464086874    -0.056784339569
C                    -5.379185011551     0.953363620119    -0.458587664279
C                    -0.754263689747     0.056326670075     0.754015674972
N                    -1.831999501600     0.812945203701     0.126500299054
O                    -3.417638600109     0.089171524767     1.589976404264
H                   -10.887664488956    -0.921566308757    -2.412858693423
H                     3.519813612350    -2.430216187485     4.350240174622
H                   -10.562411791372    -0.183493166194    -0.056152602523
H                    -9.181548789667    -0.338760009388    -4.130943100609
H                     4.244631638384    -0.590012491747     2.837618365836
H                     1.093483998640    -2.776690436414     4.793746912826
H                    -8.550831124317     1.119198439132     0.572885920037
H                    -7.172120206951     0.966263648156    -3.495663345608
H                     2.557688045313     0.886763720639     1.778813519438
H                    -0.589760143010    -1.295912236704     3.730479276880
H                    -6.714818014661     2.638212957336    -0.254980213010
H                    -6.072798658705     2.434394009812    -1.880410109237
H                     0.259497047426     1.719642236101     1.702885945560
H                    -1.003103097567     0.964074082195     2.681499891299
H                    -3.665203394657     2.206696850841    -0.930828010632
H                    -4.367790395024     2.501856732734     0.660415254458
H                    -5.759134090059     0.417294511293     0.415687876363
H                    -5.133554116287     0.192450829303    -1.209056158572
H                     0.030526931508    -0.112155881821     0.010272388014
H                    -1.156442111140    -0.917276755953     1.041794757176
H                    -1.604553998144     1.482818976915    -0.595189823990
