34
0 1 C12H19NO2
C                     1.943912538707    -0.405647717769    -0.394748238885
C                     1.084402513355     0.283816402163     0.470773096702
C                     2.700246549623    -1.767980166539     1.428687392119
C                     2.760078563626    -1.442364252301     0.063985139630
C                     1.024749064911    -0.055925977091     1.826311174676
C                     1.853970616589    -1.095579492768     2.305763412645
C                    -2.511324628509     3.119569635294     3.093985245393
C                     2.313239834656    -0.567740174381     4.573540368399
C                     3.722448023147    -2.158357930841    -0.855152557945
C                    -1.507211876700     2.030170535463     3.485966866444
C                     5.128719791421    -1.541206072544    -0.821966775542
C                    -0.694048879534     1.554776975573     2.290736669025
N                     6.043932915005    -2.304708582544    -1.685533775022
O                     1.797815886774    -1.507001803931     3.620440278531
O                     0.202122225467     0.538692250843     2.745642582860
H                     1.965538942369    -0.128121856780    -1.446473387427
H                     0.456235037652     1.073234053696     0.073853627846
H                     3.311463664336    -2.570439014713     1.835340022703
H                    -2.006462258694     3.997856233357     2.675521876894
H                    -3.223345239260     2.755618086583     2.344513990844
H                    -3.086530117472     3.451133115080     3.963819163576
H                     2.242922084264    -1.055631561170     5.548074691225
H                     1.726181950948     0.355201825787     4.580262432422
H                     3.364350841294    -0.337708391392     4.355856448778
H                     3.343567057088    -2.126677287179    -1.884718384330
H                     3.807254698485    -3.215221607061    -0.581209925186
H                    -2.027869577700     1.169717204108     3.920154227748
H                    -0.820147781798     2.405697031308     4.252726276964
H                     5.054120081917    -0.472132928672    -1.083262718561
H                     5.512248764342    -1.589372015097     0.203399114201
H                    -1.353108889988     1.146908988981     1.511618134246
H                    -0.125553807403     2.388266457874     1.854286450716
H                     6.981350557771    -1.909183654391    -1.630301274082
H                     5.752214463017    -2.209642441700    -2.657880241129
