31
0 1 C9H17NO4
C                     1.930382832124    -0.991499130355     0.284250666149
C                     0.808601013350     1.117116153267    -0.470478588417
C                    -0.110814687472    -1.107213480204    -1.278207380138
C                    -0.366737418012     1.243953474703     0.511157969923
C                    -1.389351485715    -0.281222862319    -1.105272235941
C                     1.173373178329    -0.332205980297    -0.873880620981
C                     0.724387206992    -2.090919846410     3.536188778880
C                    -3.480050125468     0.152542771207     1.353814791220
C                     1.800597512074    -1.858918793933     2.492613388016
N                    -1.420647962598     0.236645556187     0.264391751413
O                     3.140367580282    -1.162012706719     0.263169315014
O                     2.056524301403    -0.290263050614    -1.991446193870
O                     1.144524728141    -1.303503865886     1.319611438084
O                    -2.686549167949     0.913004671289     0.447958441488
H                     0.570831183137     1.621051796200    -1.411214071750
H                     1.689372876308     1.623719711901    -0.062408350295
H                    -0.204247739818    -2.021499014348    -0.687951350456
H                     0.006456380020    -1.390996179070    -2.326600416203
H                    -0.027728012697     1.132028425273     1.545738581188
H                    -0.800756231083     2.245348927995     0.406667754468
H                    -1.460875363265     0.521738116819    -1.856309563985
H                    -2.261696407973    -0.926887302029    -1.237087818444
H                     0.228209042670    -1.152398588696     3.799357109624
H                    -0.032343517495    -2.788826200264     3.166966476981
H                     1.174105511963    -2.512122162067     4.440958574337
H                    -4.416892118681     0.706216785608     1.465952178297
H                    -2.985460567008     0.054166462865     2.327706438908
H                    -3.694200268469    -0.848987267724     0.958117705846
H                     2.303952573522    -2.784935869331     2.201688035081
H                     2.562693982350    -1.151655311678     2.831195091143
H                     2.956654022363    -0.431183391616    -1.640960506512
