20   
torsion grid (-165,)
C        2.0442872487   -1.0478105379   -0.0362229856
C        0.8895257951   -0.6105695480    0.6167571805
C        3.1301117833   -1.4801271576    0.7232991378
C        0.8322975923   -0.6264720896    2.0126052297
C        3.0784163571   -1.5141229280    2.1294810497
C        1.9008174615   -1.0854375461    2.7961897313
C        4.2542422740   -2.0450302311    2.8895617388
C        1.7475133046   -1.0869103794    4.2991545845
C        5.6382987063   -2.0232873083    2.2497393322
O        4.1312497214   -2.5264098330    4.0117064839
H        2.1010298618   -1.0463672253   -1.1213145820
H        0.0365128598   -0.2555442238    0.0438252109
H        4.0234854375   -1.8205177976    0.2097123243
H       -0.0688512207   -0.2772305003    2.5110776494
H        1.6730459726   -2.1069466999    4.6846575011
H        2.6090408715   -0.6367981410    4.7988245429
H        0.8472190766   -0.5351356711    4.5843859251
H        6.3603732514   -1.7315717665    3.0155875911
H        5.7286447335   -1.3656323263    1.3845808618
H        5.8930131753   -3.0420750150    1.9355912060
20   
torsion grid (-150,)
C        2.0479280717   -1.0484321988   -0.0326166009
C        0.8790219648   -0.6303270102    0.6077709947
C        3.1324143966   -1.4617706378    0.7386936061
C        0.8087961994   -0.6423245833    2.0028423650
C        3.0692552438   -1.4912736668    2.1448823947
C        1.8787479008   -1.0771152142    2.7986943069
C        4.2523912418   -1.9921829521    2.9140520805
C        1.7094674093   -1.0696049907    4.2997070711
C        5.6122691784   -2.0515786355    2.2286706549
O        4.1512305032   -2.3910346019    4.0704085719
H        2.1156570418   -1.0477594130   -1.1170851659
H        0.0251475276   -0.2929132320    0.0255297189
H        4.0369699796   -1.7857512745    0.2345481713
H       -0.1033485414   -0.3079349241    2.4913719331
H        1.6727618056   -2.0874391183    4.6965264148
H        2.5471881346   -0.5803112887    4.8027186200
H        0.7843053082   -0.5519053207    4.5689772825
H        6.3863001057   -1.9970946458    2.9957294960
H        5.7625762993   -1.2693129522    1.4818678104
H        5.7123580557   -3.0189234028    1.7212238956
20   
torsion grid (-135,)
C        2.1059152496   -1.0576046445   -0.0370418564
C        0.9221713941   -0.6672633394    0.5933154596
C        3.1893617667   -1.4545247251    0.7437134323
C        0.8393648794   -0.6855683352    1.9873885019
C        3.1163801783   -1.4873423992    2.1499729249
C        1.9115886566   -1.0956218960    2.7935909834
C        4.3092113441   -1.9513451370    2.9277927180
C        1.7246413840   -1.0879311403    4.2923087489
C        5.6399172465   -2.1177691127    2.2045235273
O        4.2416362709   -2.2205006852    4.1236820281
H        2.1850083378   -1.0498732020   -1.1207135163
H        0.0663808439   -0.3471654049    0.0041418983
H        4.1048562341   -1.7554238547    0.2459751663
H       -0.0850774446   -0.3743629642    2.4678964209
H        1.7667013404   -2.1002125125    4.7022703511
H        2.5155799621   -0.5276298810    4.7970961902
H        0.7579733721   -0.6428785460    4.5452586805
H        6.4225210998   -2.2467501260    2.9529946026
H        5.8762289078   -1.2670655552    1.5593063681
H        5.6142312926   -3.0130945626    1.5722908233
20   
torsion grid (-120,)
C        2.1071399194   -1.0191399291   -0.0286188956
C        0.9067481729   -0.6780078088    0.5985419874
C        3.1979876997   -1.3911887971    0.7537834738
C        0.8177207307   -0.7147770967    1.9917171485
C        3.1233072896   -1.4328382212    2.1601931504
C        1.9021064387   -1.0862756135    2.8005682139
C        4.3353019114   -1.8413429093    2.9399628967
C        1.7046597294   -1.0947761696    4.2977333405
C        5.6098347491   -2.1978924716    2.1843766851
O        4.3341920999   -1.8978138915    4.1665954517
H        2.1923736028   -0.9956686466   -1.1115971552
H        0.0424626693   -0.3844235735    0.0079269873
H        4.1250757239   -1.6539485236    0.2566542941
H       -0.1214677643   -0.4474914530    2.4699714236
H        1.8932416977   -2.0841720157    4.7218425310
H        2.4020535463   -0.4182883478    4.7982386454
H        0.6814672640   -0.7932388089    4.5400188206
H        6.3737512107   -2.4654593731    2.9150516596
H        5.9666502427   -1.3550003318    1.5833322525
H        5.4488968157   -3.0428646072    1.5067306620
20   
torsion grid (-105,)
C        2.1615265013   -0.9961505335   -0.0389523850
C        0.9519640445   -0.7003131278    0.5938980304
C        3.2619915972   -1.3513246320    0.7380721562
C        0.8632624899   -0.7582536313    1.9865499258
C        3.1896820398   -1.4044748145    2.1437497018
C        1.9615878970   -1.0989157151    2.7898963418
C        4.4182004002   -1.7667814051    2.9196659043
C        1.7715794337   -1.1287005394    4.2879077579
C        5.6268006613   -2.3144875009    2.1702141136
O        4.4871766350   -1.6174442804    4.1362627507
H        2.2454336532   -0.9538853174   -1.1214727506
H        0.0784490834   -0.4273849228    0.0070191449
H        4.1975005205   -1.5801719280    0.2392144351
H       -0.0848685377   -0.5310188662    2.4679651514
H        2.0915850201   -2.0808381244    4.7185076665
H        2.3741304821   -0.3606408966    4.7794262278
H        0.7184547263   -0.9643935213    4.5336710274
H        6.3269504840   -2.7146588612    2.9047641900
H        6.1293743253   -1.5090615817    1.6222636181
H        5.3593036175   -3.0950384800    1.4526844275
20   
torsion grid (-90,)
C        2.1385533867   -0.9772959369   -0.0396109286
C        0.9226371361   -0.7132333432    0.5953311261
C        3.2472780039   -1.3144149295    0.7342676215
C        0.8366440015   -0.7797214655    1.9880230277
C        3.1768374089   -1.3711998404    2.1393333955
C        1.9447874155   -1.0937339873    2.7883660850
C        4.4170629296   -1.6915189578    2.9143643258
C        1.7639844670   -1.1298788812    4.2875702696
C        5.5910123451   -2.3470197036    2.1960223090
O        4.5291078380   -1.4101956567    4.1038008616
H        2.2206663614   -0.9263106548   -1.1218923356
H        0.0422516284   -0.4592824938    0.0101930466
H        4.1890461468   -1.5179516997    0.2353086428
H       -0.1167375209   -0.5796235595    2.4712513095
H        2.1694100432   -2.0450347559    4.7259494654
H        2.2961176634   -0.3045490356    4.7678291036
H        0.7015913340   -1.0581923245    4.5378590887
H        6.1812179279   -2.8833931201    2.9413930491
H        6.2353263892   -1.5687577604    1.7699669322
H        5.2943867134   -3.0309789214    1.3983822378
20   
torsion grid (-75,)
C        2.1627069042   -0.9774690173   -0.0335012470
C        0.9471117213   -0.7320283849    0.6093828840
C        3.2800660860   -1.3061242316    0.7321961473
C        0.8707851070   -0.8050742843    2.0025332893
C        3.2183802860   -1.3680693125    2.1370243144
C        1.9883064685   -1.1054960232    2.7946226326
C        4.4665921354   -1.6661269853    2.9077213107
C        1.8217714977   -1.1455774662    4.2955464294
C        5.6150055727   -2.4013953887    2.2248699314
O        4.6048939844   -1.3089040904    4.0736421794
H        2.2382135481   -0.9196329045   -1.1159140371
H        0.0599623115   -0.4875581923    0.0304560801
H        4.2222183433   -1.4935684211    0.2272657173
H       -0.0822150519   -0.6198631321    2.4924425954
H        2.2690568771   -2.0412769326    4.7334854600
H        2.3217661200   -0.2959658825    4.7680179477
H        0.7596274330   -1.1185225362    4.5553100446
H        6.0420499983   -3.0930626665    2.9553087870
H        6.4026785150   -1.6806768094    1.9778249356
H        5.3341470465   -2.9529919374    1.3271887481
20   
torsion grid (-60,)
C        2.1315721218   -0.9798564572   -0.0450918789
C        0.9171052375   -0.7596696832    0.6085383004
C        3.2634892265   -1.2824578377    0.7102953816
C        0.8557817343   -0.8287721399    2.0026963420
C        3.2164812197   -1.3403099880    2.1157029123
C        1.9875579691   -1.1000932355    2.7845825782
C        4.4759479744   -1.6073581010    2.8806495301
C        1.8373300197   -1.1360632991    4.2875685603
C        5.6048426696   -2.4038862573    2.2347207211
O        4.6280728302   -1.2002821816    4.0282405876
H        2.1958290529   -0.9229402301   -1.1282630935
H        0.0192218643   -0.5372104022    0.0373731015
H        4.2045259227   -1.4483431797    0.1959569207
H       -0.0962523018   -0.6627255143    2.5012857058
H        2.3106732232   -2.0183621234    4.7257265568
H        2.3204917096   -0.2716718140    4.7502148767
H        0.7776153207   -1.1345945031    4.5583379460
H        5.8297076097   -3.2421664682    2.9012311128
H        6.5047614383   -1.7821887875    2.1987889976
H        5.3866712876   -2.7982980541    1.2426955999
20   
torsion grid (-45,)
C        2.1495993098   -1.2688601064   -0.0100932823
C        1.0065323753   -0.7971618010    0.6394712165
C        3.2578183383   -1.6382199684    0.7503707511
C        0.9828449333   -0.7168264113    2.0341073587
C        3.2399558826   -1.5752415419    2.1563528428
C        2.0743909537   -1.1116057937    2.8208402550
C        4.4385029219   -2.0432784288    2.9221228056
C        1.9573920021   -1.0109373751    4.3237121096
C        5.8099134037   -2.0404431813    2.2543437961
O        4.3455546879   -2.4530883019    4.0751147780
H        2.1801914762   -1.3421624233   -1.0937606823
H        0.1364930452   -0.4898161970    0.0645847292
H        4.1421581207   -2.0059343349    0.2399578683
H        0.0904355315   -0.3414532699    2.5293091071
H        1.8995972785   -2.0026389228    4.7796119319
H        2.8273439157   -0.5228144340    4.7702711525
H        1.0602225726   -0.4460449968    4.5926414725
H        6.1043217201   -3.0713058708    2.0309954920
H        6.5271637036   -1.6380411011    2.9740651368
H        5.8645868311   -1.4480237587    1.3402061009
20   
torsion grid (-30,)
C        2.1537851708   -1.2698698387   -0.0069914938
C        0.9967152181   -0.8182377255    0.6321602582
C        3.2612515968   -1.6184079865    0.7637227023
C        0.9607208538   -0.7335620384    2.0260749170
C        3.2322717657   -1.5506046483    2.1696719178
C        2.0539740506   -1.1029042554    2.8232289483
C        4.4381487579   -1.9885155388    2.9415486974
C        1.9218122134   -0.9937691719    4.3240309138
C        5.7860641763   -2.0664488675    2.2332877132
O        4.3663410148   -2.3204339550    4.1209820395
H        2.1948388026   -1.3443488873   -1.0902400667
H        0.1254160368   -0.5295179463    0.0495511491
H        4.1569027508   -1.9688900236    0.2613021758
H        0.0573964033   -0.3736632651    2.5128591969
H        1.8984995073   -1.9826182462    4.7893509411
H        2.7698302227   -0.4699813355    4.7720176258
H        1.0016784301   -0.4609501547    4.5807064704
H        5.9211585489   -3.0701558312    1.8141383044
H        6.5672862434   -1.8990469061    2.9770173234
H        5.8975242026   -1.3389977384    1.4265219978
20   
torsion grid (-15,)
C        2.2956754609   -0.7385053041    0.0007952712
C        1.0948561003   -0.3944156470    0.6258309379
C        3.3266020109   -1.2795130898    0.7660351981
C        0.9427205263   -0.6017497964    1.9986441603
C        3.1827710481   -1.5036541328    2.1490946257
C        1.9603662296   -1.1597779250    2.7864928903
C        4.3196513101   -2.1174444556    2.9063724172
C        1.7004230675   -1.3528358515    4.2617197856
C        5.6828077673   -2.2188957274    2.2325454996
O        4.1806049169   -2.5601137049    4.0429398366
H        2.4283788399   -0.5844093290   -1.0665854862
H        0.2797110639    0.0360747702    0.0494697579
H        4.2560234688   -1.5431585836    0.2729020273
H        0.0059089217   -0.3249094041    2.4762317210
H        1.6834214001   -2.4133971818    4.5254110102
H        2.4863450467   -0.9045678573    4.8746635432
H        0.7401891336   -0.9047343695    4.5330915392
H        5.6794823279   -3.0243226543    1.4892507389
H        6.4236677307   -2.4529649883    2.9980789371
H        5.9670607649   -1.2945116367    1.7219439387
20   
torsion grid (0,)
C        2.3290830802   -0.7105589056    0.0065156141
C        1.1070054197   -0.4150315649    0.6146496203
C        3.3634877690   -1.2288257125    0.7823661858
C        0.9403652113   -0.6419560948    1.9824798669
C        3.2104283006   -1.4630015263    2.1633043458
C        1.9670145043   -1.1630245827    2.7841226784
C        4.3648751603   -2.0212733508    2.9376004959
C        1.6875137737   -1.3724529808    4.2533344213
C        5.6672517032   -2.3177805608    2.2039433460
O        4.2948778368   -2.2469322496    4.1425803542
H        2.4743443650   -0.5397547712   -1.0566804781
H        0.2857877344   -0.0096570502    0.0287535307
H        4.3080576694   -1.4547152280    0.3002515698
H       -0.0151387804   -0.4085889519    2.4459450209
H        1.8220396833   -2.4177728275    4.5424353608
H        2.3767884472   -0.7993734074    4.8785896451
H        0.6622773057   -1.0689132599    4.4842098802
H        5.5176442581   -3.0532170906    1.4065629199
H        6.3813553954   -2.7135642663    2.9267523315
H        6.0824207202   -1.4136656625    1.7464655486
20   
torsion grid (15,)
C        2.3210666696   -0.6655818126    0.0160751710
C        1.0844166823   -0.4261420396    0.6197316988
C        3.3700682006   -1.1540324171    0.7920288793
C        0.9191910456   -0.6719178628    1.9846659045
C        3.2201752746   -1.3961739801    2.1714058056
C        1.9649360589   -1.1481842921    2.7892103294
C        4.3976635575   -1.8917087509    2.9528617983
C        1.6929026395   -1.3768275323    4.2571519443
C        5.6261680305   -2.3856959237    2.1983545953
O        4.4107207024   -1.8910533575    4.1804228788
H        2.4652188948   -0.4778576212   -1.0444145184
H        0.2498876830   -0.0520613335    0.0318534401
H        4.3267785970   -1.3379808659    0.3151828573
H       -0.0493268020   -0.4876531816    2.4433240504
H        1.9800724382   -2.3833405325    4.5714521628
H        2.2744873296   -0.6916328695    4.8791480012
H        0.6294527068   -1.2298218977    4.4667974481
H        5.3681079602   -3.0428512698    1.3631594389
H        6.2623936404   -2.9251390716    2.9011505467
H        6.1899339578   -1.5369877904    1.7945280530
20   
torsion grid (30,)
C        2.2638188751   -0.6388323671    0.0199523712
C        1.0219974965   -0.4347471004    0.6261954065
C        3.3247183977   -1.1101190663    0.7908891431
C        0.8636602576   -0.6925308121    1.9899913858
C        3.1810830389   -1.3601694775    2.1689241495
C        1.9233165742   -1.1429123227    2.7908414978
C        4.3735531546   -1.8161529341    2.9510942856
C        1.6661572850   -1.3813152617    4.2601310012
C        5.5615902080   -2.4200873577    2.2105397235
O        4.4367328048   -1.6857140202    4.1698586847
H        2.4025273810   -0.4390248002   -1.0390551915
H        0.1776717564   -0.0792179239    0.0408161619
H        4.2869191315   -1.2662164025    0.3141730742
H       -0.1093034921   -0.5372446158    2.4501104625
H        2.0341744708   -2.3571610040    4.5864266614
H        2.1862177575   -0.6421756656    4.8750300620
H        0.5937413945   -1.3208756207    4.4667614884
H        5.2829474180   -2.9479055058    1.2960726323
H        6.0618825738   -3.1153567459    2.8871286466
H        6.2707437371   -1.6264629648    1.9485783643
20   
torsion grid (45,)
C        2.2600018121   -0.6367716252    0.0168870362
C        1.0175516760   -0.4584569784    0.6297125692
C        3.3340153965   -1.0901759382    0.7809548621
C        0.8717250452   -0.7199184700    1.9944088063
C        3.2022336232   -1.3427210083    2.1593323473
C        1.9451344688   -1.1472575957    2.7890436133
C        4.4063067028   -1.7693358640    2.9404756328
C        1.7051028755   -1.3878646415    4.2610966753
C        5.5649890462   -2.4578889972    2.2262964619
O        4.4983043702   -1.5600773930    4.1461792559
H        2.3895074740   -0.4318462204   -1.0423002001
H        0.1631460936   -0.1198188139    0.0489897847
H        4.2972919795   -1.2247031230    0.2995071116
H       -0.1016580253   -0.5846303594    2.4599690260
H        2.1115410363   -2.3473835492    4.5906820538
H        2.1991440522   -0.6252313910    4.8685262123
H        0.6324077912   -1.3682581233    4.4738870838
H        5.3233739008   -2.8282119466    1.2292599882
H        5.8798324726   -3.3019884870    2.8449593528
H        6.4087135848   -1.7633750514    2.1554698559
20   
torsion grid (60,)
C        2.0818251445   -0.8537042900   -0.0623604670
C        0.9246880371   -0.4325436886    0.5966560560
C        3.1372348756   -1.3737979373    0.6853214854
C        0.8335608177   -0.5521320593    1.9857591918
C        3.0507283595   -1.5123552040    2.0831940686
C        1.8694195277   -1.1013210931    2.7546999625
C        4.1895625010   -2.1357107769    2.8296551397
C        1.6803215128   -1.2129752173    4.2495589421
C        5.6061687017   -2.0450367171    2.2719028589
O        4.0146882585   -2.7238533310    3.8923527006
H        2.1643658588   -0.7729254891   -1.1427726242
H        0.0959351798   -0.0100688070    0.0339871358
H        4.0315972126   -1.7027543030    0.1661719234
H       -0.0689795252   -0.2146179021    2.4897803258
H        1.5540063952   -2.2558271432    4.5514935738
H        2.5472125654   -0.8406248005    4.8012322380
H        0.7970675182   -0.6468173204    4.5588188117
H        5.7107837203   -1.4526598580    1.3633770182
H        5.9884464903   -3.0564973911    2.1031900834
H        6.2314368537   -1.5999659979    3.0519452786
20   
torsion grid (75,)
C        2.1052529043   -0.8752390613   -0.0525302974
C        0.9333571027   -0.4721442731    0.5919761590
C        3.1630781481   -1.3675599429    0.7099826765
C        0.8322770769   -0.5798000147    1.9813010361
C        3.0669479326   -1.4943162852    2.1085096209
C        1.8725513618   -1.0989207002    2.7654282238
C        4.2139976163   -2.0871172877    2.8659478498
C        1.6725907888   -1.1975977416    4.2595461580
C        5.6136289367   -2.0513922070    2.2613714194
O        4.0553042319   -2.6299583549    3.9550976364
H        2.1964219539   -0.8017673805   -1.1327870857
H        0.1012296775   -0.0723777528    0.0177747767
H        4.0701497824   -1.6812175284    0.2034441023
H       -0.0815227608   -0.2558527382    2.4737966585
H        1.5679420549   -2.2396978345    4.5728191520
H        2.5258499988   -0.7994696479    4.8141406544
H        0.7733372857   -0.6489833609    4.5540370204
H        5.7514928436   -1.3107655943    1.4730582602
H        5.8595993008   -3.0462754008    1.8732973530
H        6.3166609981   -1.8500131147    3.0734699598
20   
torsion grid (90,)
C        2.0858187500   -0.8604633304   -0.0575708637
C        0.9034096562   -0.4710466316    0.5761401203
C        3.1409645070   -1.3422549381    0.7146765672
C        0.7906247425   -0.5784321078    1.9643632707
C        3.0346282712   -1.4682084360    2.1129644082
C        1.8305378476   -1.0824605801    2.7591362454
C        4.1876357574   -2.0390095351    2.8785913200
C        1.6167333757   -1.1759513914    4.2514988845
C        5.5644477473   -2.0772715604    2.2253099844
O        4.0496121930   -2.5087632030    4.0040904763
H        2.1863459526   -0.7852331835   -1.1368800306
H        0.0717579010   -0.0818730945   -0.0059732688
H        4.0566212767   -1.6435615973    0.2165834713
H       -0.1316624217   -0.2653229799    2.4479256073
H        1.5526761009   -2.2181463379    4.5750676835
H        2.4464978160   -0.7374721000    4.8112343515
H        0.6918634370   -0.6623911145    4.5295812199
H        5.7595526855   -1.2364421253    1.5567811054
H        5.6703066580   -3.0094335217    1.6576524863
H        6.3112671507   -2.0966955734    3.0212504404
20   
torsion grid (105,)
C        2.0823099681   -0.8483360841   -0.0497164025
C        0.8866225035   -0.4795564054    0.5710090108
C        3.1343616762   -1.3180728989    0.7335486428
C        0.7610988950   -0.5912841028    1.9575441951
C        3.0182033180   -1.4452482531    2.1315514818
C        1.8011044202   -1.0753583551    2.7648339981
C        4.1788983506   -1.9837421854    2.9096560955
C        1.5688801502   -1.1663041987    4.2544124018
C        5.5268308726   -2.1300007331    2.2135977963
O        4.0723105423   -2.3284001809    4.0830971274
H        2.1945944770   -0.7681886633   -1.1275095859
H        0.0546862560   -0.1039761637   -0.0195753401
H        4.0595591209   -1.6016595059    0.2436898223
H       -0.1722266651   -0.2961464431    2.4309715136
H        1.5827265479   -2.2047155173    4.5951381369
H        2.3528445120   -0.6556965386    4.8192151058
H        0.6020467924   -0.7225134477    4.5089592724
H        5.8039259116   -1.2405399394    1.6411312640
H        5.5066619136   -2.9828781070    1.5253511387
H        6.2813051940   -2.3260405585    2.9766252308
20   
torsion grid (120,)
C        2.1131802475   -0.8209758051   -0.0465845695
C        0.8980205130   -0.4985601582    0.5617594832
C        3.1684862168   -1.2694381809    0.7444596748
C        0.7592736921   -0.6295494990    1.9451554428
C        3.0435380062   -1.4064787671    2.1412000132
C        1.8073286117   -1.0788544742    2.7624085711
C        4.2192400110   -1.8939576369    2.9312204968
C        1.5570717331   -1.1861814299    4.2478145644
C        5.5113498091   -2.2281504010    2.1957318909
O        4.1745138065   -2.0324811588    4.1504877516
H        2.2370505462   -0.7245029851   -1.1217612967
H        0.0608060579   -0.1465817226   -0.0358966374
H        4.1073590111   -1.5170294946    0.2618691419
H       -0.1909835046   -0.3760475564    2.4088258867
H        1.7111723898   -2.2063983283    4.6081087359
H        2.2494137549   -0.5612792429    4.8175420532
H        0.5320068171   -0.8798175580    4.4757077543
H        5.9070867738   -1.3547395385    1.6669661141
H        5.3560897002   -3.0204575036    1.4559809976
H        6.2434395546   -2.5634492986    2.9310544115
20   
torsion grid (135,)
C        2.1058172411   -0.7779903106   -0.0415309959
C        0.8777418561   -0.5080151430    0.5666717846
C        3.1741583630   -1.1980899539    0.7478650163
C        0.7400066567   -0.6561664875    1.9485950845
C        3.0520625484   -1.3420353659    2.1436958680
C        1.8052153586   -1.0630945668    2.7656089682
C        4.2484382005   -1.7704667196    2.9363401058
C        1.5613848201   -1.1882032081    4.2508888641
C        5.4739221832   -2.2910024839    2.1955148715
O        4.2781773210   -1.6955198775    4.1613549391
H        2.2286463076   -0.6660455607   -1.1153285320
H        0.0285298733   -0.1856386321   -0.0307209189
H        4.1239635869   -1.4061373493    0.2672400972
H       -0.2220218935   -0.4486817947    2.4109601128
H        1.8585392643   -2.1692774223    4.6297353588
H        2.1514942590   -0.4593994873    4.8122868077
H        0.5013452382   -1.0298878420    4.4694178188
H        6.0018405287   -1.4601783239    1.7127930806
H        5.2175613178   -3.0139872127    1.4161445026
H        6.1446953690   -2.7492470625    2.9231055082
20   
torsion grid (150,)
C        2.0535246223   -0.7520627486   -0.0362822654
C        0.8206650855   -0.5160008404    0.5766408863
C        3.1327723043   -1.1571824142    0.7465983941
C        0.6894235760   -0.6768902810    1.9579937740
C        3.0164518558   -1.3096805284    2.1414249404
C        1.7676535380   -1.0598143545    2.7691997744
C        4.2265681414   -1.7013457623    2.9317715374
C        1.5385067614   -1.1955625205    4.2560661152
C        5.4110081691   -2.3329628275    2.2100502848
O        4.3064071097   -1.4952417081    4.1390784446
H        2.1712584194   -0.6273800974   -1.1092468538
H       -0.0374700287   -0.2106451109   -0.0169225369
H        4.0876563446   -1.3382584196    0.2641275553
H       -0.2765839914   -0.4974074953    2.4239166338
H        1.9137840149   -2.1467125919    4.6418333139
H        2.0693839528   -0.4160912749    4.8086399812
H        0.4700999074   -1.1209652491    4.4781790315
H        6.0764310500   -1.5365478339    1.8547623606
H        5.1271269169   -2.9367470641    1.3456774290
H        5.9685141166   -2.9364992304    2.9279127967
20   
torsion grid (165,)
C        2.0704328605   -0.7514050433   -0.0313745263
C        0.8373610334   -0.5357588382    0.5884162550
C        3.1593863037   -1.1456750247    0.7442190585
C        0.7155426976   -0.7025254055    1.9701784370
C        3.0517434194   -1.3020088593    2.1388740954
C        1.8041072336   -1.0693528838    2.7744721666
C        4.2711672806   -1.6665303185    2.9275914209
C        1.5891441486   -1.2089873907    4.2633557488
C        5.4263657327   -2.3866030639    2.2403541684
O        4.3802986581   -1.3757402655    4.1148455630
H        2.1812708865   -0.6204486170   -1.1043192033
H       -0.0282700105   -0.2417386771    0.0000577341
H        4.1151784252   -1.3093687097    0.2569032246
H       -0.2508100759   -0.5396438580    2.4415192473
H        2.0154114950   -2.1363744593    4.6537546194
H        2.0796438117   -0.3977571536    4.8076541473
H        0.5194286761   -1.1896944662    4.4907603411
H        6.2386368480   -1.6683444384    2.0795595615
H        5.1732511485   -2.8381505728    1.2805541411
H        5.8024055248   -3.1515080274    2.9233901112
20   
torsion grid (180,)
C        2.0409972340   -1.0378308131   -0.0380866296
C        0.8986515751   -0.5845304279    0.6252868555
C        3.1239334781   -1.4958865966    0.7108700668
C        0.8496657048   -0.6110776512    2.0213614009
C        3.0801187027   -1.5407532081    2.1168750842
C        1.9138801767   -1.0970209881    2.7941095114
C        4.2467368596   -2.1007076539    2.8711925561
C        1.7693629181   -1.1090628713    4.2980940968
C        5.6495787404   -2.0181187591    2.2787152074
O        4.1060929329   -2.6228729413    3.9727370826
H        2.0910719130   -1.0295225287   -1.1234646686
H        0.0488822287   -0.2092147470    0.0605421822
H        4.0059708900   -1.8507072113    0.1878302760
H       -0.0416283763   -0.2491470870    2.5284432376
H        1.6598924218   -2.1300070569    4.6727455245
H        2.6489008424   -0.6954456530    4.7978671140
H        0.8910445729   -0.5286275714    4.5946885045
H        6.2681799078   -1.4520998215    2.9819044700
H        5.7123488480   -1.5445819428    1.2993796454
H        6.0695947467   -3.0268689651    2.2224647813
