
  -OEChem-05262117483D

 36 38  0     1  0  0  0  0  0999 V2000
    0.0426   -3.4660   -1.0311 C   0  0  0  0  0  0  0  0  0  0  0  0
    0.1478   -4.2926   -2.1519 C   0  0  0  0  0  0  0  0  0  0  0  0
    1.7916   -2.7676   -3.0901 C   0  0  0  0  0  0  0  0  0  0  0  0
    0.7155   -5.3117    2.5110 C   0  0  0  0  0  0  0  0  0  0  0  0
    1.9035   -3.5947    2.2405 C   0  0  0  0  0  0  0  0  0  0  0  0
    0.7911   -2.2879   -0.8965 C   0  0  0  0  0  0  0  0  0  0  0  0
    1.0304   -3.9293   -3.1606 C   0  0  0  0  0  0  0  0  0  0  0  0
    1.6478   -1.9691   -1.9612 C   0  0  0  0  0  0  0  0  0  0  0  0
   -1.6025   -0.2455   -0.4198 C   0  0  0  0  0  0  0  0  0  0  0  0
   -0.6023    0.2798   -1.4125 C   0  0  0  0  0  0  0  0  0  0  0  0
   -0.1478   -0.0837   -0.0129 C   0  0  0  0  0  0  0  0  0  0  0  0
    1.5052    2.1845    0.1176 C   0  0  0  0  0  0  0  0  0  0  0  0
   -0.0023   -2.0378    1.5300 C   0  0  0  0  0  0  0  0  0  0  0  0
    0.6790   -1.3700    0.3114 C   0  0  1  0  0  0  0  0  0  0  0  0
    2.0035   -4.8701    2.5978 N   0  0  0  0  0  0  0  0  0  0  0  0
   -0.1664   -4.3955    2.1257 N   0  0  0  0  0  0  0  0  0  0  0  0
    0.6152   -3.2870    1.9538 N   0  0  0  0  0  0  0  0  0  0  0  0
    2.0189   -1.0414    0.6970 O   0  0  0  0  0  0  0  0  0  0  0  0
    1.1552   -4.7194   -4.2530 F   0  0  0  0  0  0  0  0  0  0  0  0
    2.3508   -0.8132   -1.9480 F   0  0  0  0  0  0  0  0  0  0  0  0
    0.2139    1.3140    1.0872 S   0  0  0  0  0  0  0  0  0  0  0  0
   -0.6294   -3.7759   -0.2401 H   0  0  0  0  0  0  0  0  0  0  0  0
   -0.4307   -5.2065   -2.2360 H   0  0  0  0  0  0  0  0  0  0  0  0
    2.4676   -2.4819   -3.8887 H   0  0  0  0  0  0  0  0  0  0  0  0
    0.4160   -6.3275    2.7353 H   0  0  0  0  0  0  0  0  0  0  0  0
    2.7082   -2.8804    2.1505 H   0  0  0  0  0  0  0  0  0  0  0  0
   -2.3284    0.4384    0.0068 H   0  0  0  0  0  0  0  0  0  0  0  0
   -1.9616   -1.2596   -0.5723 H   0  0  0  0  0  0  0  0  0  0  0  0
   -0.3130   -0.3683   -2.2308 H   0  0  0  0  0  0  0  0  0  0  0  0
   -0.6363    1.3344   -1.6633 H   0  0  0  0  0  0  0  0  0  0  0  0
    1.9437    2.9345    0.7804 H   0  0  0  0  0  0  0  0  0  0  0  0
    1.0655    2.6855   -0.7470 H   0  0  0  0  0  0  0  0  0  0  0  0
    2.2756    1.4870   -0.2135 H   0  0  0  0  0  0  0  0  0  0  0  0
    0.0272   -1.3181    2.3541 H   0  0  0  0  0  0  0  0  0  0  0  0
   -1.0479   -2.2711    1.3397 H   0  0  0  0  0  0  0  0  0  0  0  0
    1.9393   -0.2951    1.3234 H   0  0  0  0  0  0  0  0  0  0  0  0
  1  2  1  0  0  0  0
  1  6  2  0  0  0  0
  1 22  1  0  0  0  0
  2  7  2  0  0  0  0
  2 23  1  0  0  0  0
  3  7  1  0  0  0  0
  3  8  2  0  0  0  0
  3 24  1  0  0  0  0
  4 15  1  0  0  0  0
  4 16  2  0  0  0  0
  4 25  1  0  0  0  0
  5 15  2  0  0  0  0
  5 17  1  0  0  0  0
  5 26  1  0  0  0  0
  6  8  1  0  0  0  0
  6 14  1  0  0  0  0
  7 19  1  0  0  0  0
  8 20  1  0  0  0  0
  9 10  1  0  0  0  0
  9 11  1  0  0  0  0
  9 27  1  0  0  0  0
  9 28  1  0  0  0  0
 10 11  1  0  0  0  0
 10 29  1  0  0  0  0
 10 30  1  0  0  0  0
 11 14  1  0  0  0  0
 11 21  1  0  0  0  0
 12 21  1  0  0  0  0
 12 31  1  0  0  0  0
 12 32  1  0  0  0  0
 12 33  1  0  0  0  0
 13 14  1  0  0  0  0
 13 17  1  0  0  0  0
 13 34  1  0  0  0  0
 13 35  1  0  0  0  0
 14 18  1  0  0  0  0
 16 17  1  0  0  0  0
 18 36  1  0  0  0  0
M  END
$$$$
