
  -OEChem-05262117483D

 40 41  0     1  0  0  0  0  0999 V2000
    0.1590   -7.6516   -3.0060 C   0  0  0  0  0  0  0  0  0  0  0  0
    0.5630   -7.4892   -1.6770 C   0  0  0  0  0  0  0  0  0  0  0  0
    1.1147   -7.6327   -4.0268 C   0  0  0  0  0  0  0  0  0  0  0  0
    1.9136   -7.3004   -1.3733 C   0  0  0  0  0  0  0  0  0  0  0  0
    2.4653   -7.4416   -3.7240 C   0  0  0  0  0  0  0  0  0  0  0  0
    2.8721   -7.2730   -2.3938 C   0  0  0  0  0  0  0  0  0  0  0  0
    5.3014   -7.8724   -2.8112 C   0  0  0  0  0  0  0  0  0  0  0  0
    4.4965   -5.4616   -2.2907 C   0  0  0  0  0  0  0  0  0  0  0  0
    0.0887   -1.7382   -2.9583 C   0  0  0  0  0  0  0  0  0  0  0  0
    0.2941   -3.2587   -2.9651 C   0  0  0  0  0  0  0  0  0  0  0  0
    0.7079   -1.1003   -1.7069 C   0  0  0  0  0  0  0  0  0  0  0  0
    1.7760   -3.6297   -2.8208 C   0  0  0  0  0  0  0  0  0  0  0  0
    2.1904   -1.4729   -1.5596 C   0  0  0  0  0  0  0  0  0  0  0  0
    2.3930   -2.9989   -1.5611 C   0  0  0  0  0  0  0  0  0  0  0  0
    3.8779   -3.3153   -1.4110 C   0  0  0  0  0  0  0  0  0  0  0  0
    4.3283   -6.9558   -2.0458 C   0  0  1  0  0  0  0  0  0  0  0  0
    5.5600   -8.9780   -2.3927 O   0  0  0  0  0  0  0  0  0  0  0  0
    4.9108   -4.9778   -3.3396 O   0  0  0  0  0  0  0  0  0  0  0  0
    5.8051   -7.4086   -3.9699 O   0  0  0  0  0  0  0  0  0  0  0  0
    4.0676   -4.7547   -1.2464 O   0  0  0  0  0  0  0  0  0  0  0  0
   -0.8915   -7.7960   -3.2438 H   0  0  0  0  0  0  0  0  0  0  0  0
   -0.1720   -7.5087   -0.8767 H   0  0  0  0  0  0  0  0  0  0  0  0
    0.8097   -7.7644   -5.0615 H   0  0  0  0  0  0  0  0  0  0  0  0
    2.2235   -7.1618   -0.3410 H   0  0  0  0  0  0  0  0  0  0  0  0
    3.1970   -7.4232   -4.5267 H   0  0  0  0  0  0  0  0  0  0  0  0
   -0.9791   -1.4968   -3.0161 H   0  0  0  0  0  0  0  0  0  0  0  0
    0.5579   -1.3063   -3.8531 H   0  0  0  0  0  0  0  0  0  0  0  0
   -0.2702   -3.7075   -2.1361 H   0  0  0  0  0  0  0  0  0  0  0  0
   -0.1071   -3.6961   -3.8862 H   0  0  0  0  0  0  0  0  0  0  0  0
    0.6006   -0.0100   -1.7406 H   0  0  0  0  0  0  0  0  0  0  0  0
    0.1613   -1.4426   -0.8174 H   0  0  0  0  0  0  0  0  0  0  0  0
    1.8750   -4.7177   -2.7911 H   0  0  0  0  0  0  0  0  0  0  0  0
    2.3310   -3.2833   -3.7032 H   0  0  0  0  0  0  0  0  0  0  0  0
    2.7572   -1.0346   -2.3933 H   0  0  0  0  0  0  0  0  0  0  0  0
    2.5980   -1.0378   -0.6384 H   0  0  0  0  0  0  0  0  0  0  0  0
    1.8775   -3.4136   -0.6831 H   0  0  0  0  0  0  0  0  0  0  0  0
    4.2875   -2.8755   -0.4989 H   0  0  0  0  0  0  0  0  0  0  0  0
    4.4575   -2.9777   -2.2717 H   0  0  0  0  0  0  0  0  0  0  0  0
    4.4836   -7.1562   -0.9857 H   0  0  0  0  0  0  0  0  0  0  0  0
    5.5572   -6.4561   -4.0685 H   0  0  0  0  0  0  0  0  0  0  0  0
  1  2  1  0  0  0  0
  1  3  2  0  0  0  0
  1 21  1  0  0  0  0
  2  4  2  0  0  0  0
  2 22  1  0  0  0  0
  3  5  1  0  0  0  0
  3 23  1  0  0  0  0
  4  6  1  0  0  0  0
  4 24  1  0  0  0  0
  5  6  2  0  0  0  0
  5 25  1  0  0  0  0
  6 16  1  0  0  0  0
  7 16  1  0  0  0  0
  7 17  2  0  0  0  0
  7 19  1  0  0  0  0
  8 16  1  0  0  0  0
  8 18  2  0  0  0  0
  8 20  1  0  0  0  0
  9 10  1  0  0  0  0
  9 11  1  0  0  0  0
  9 26  1  0  0  0  0
  9 27  1  0  0  0  0
 10 12  1  0  0  0  0
 10 28  1  0  0  0  0
 10 29  1  0  0  0  0
 11 13  1  0  0  0  0
 11 30  1  0  0  0  0
 11 31  1  0  0  0  0
 12 14  1  0  0  0  0
 12 32  1  0  0  0  0
 12 33  1  0  0  0  0
 13 14  1  0  0  0  0
 13 34  1  0  0  0  0
 13 35  1  0  0  0  0
 14 15  1  0  0  0  0
 14 36  1  0  0  0  0
 15 20  1  0  0  0  0
 15 37  1  0  0  0  0
 15 38  1  0  0  0  0
 16 39  1  0  0  0  0
 19 40  1  0  0  0  0
M  END
$$$$
