39
-1 1 C16H19O4
C                     5.972282691105    -0.349990631494    -8.432527362207
C                     4.712807131162    -0.870650009986    -8.746897805625
C                     6.670348734765    -0.869480009756    -7.333415934355
C                     4.159865069387    -1.889230048685    -7.962624428635
C                     6.119167780039    -1.888109039682    -6.554140842499
C                     4.846013005076    -2.408689777148    -6.853453797101
C                     5.146380324103    -4.897763625805    -6.287345859243
C                     4.174528633396    -3.270312394344    -4.586248172814
C                    -0.022575853414    -1.765694671333    -0.562669217341
C                     1.399222222934    -1.734319304712     0.017518660273
C                     0.003448759009    -1.772839330984    -2.098330449360
C                     2.258364480708    -2.881839493371    -0.534029453477
C                     0.862617316890    -2.923899133088    -2.639529275064
C                     2.288917140812    -2.883791326471    -2.070608130610
C                     3.144042499048    -4.043683561896    -2.583209166787
C                     4.251618545017    -3.531728100750    -6.056577604454
O                     6.167162401470    -4.969476409035    -5.569788054579
O                     4.673621791549    -5.644336634980    -7.167300418582
O                     4.839664349660    -2.495409184681    -3.918821934160
O                     3.222556468877    -4.082562936537    -4.015474156691
H                     6.407718323239     0.442792528889    -9.038196276120
H                     4.160864589886    -0.486734753576    -9.603311265860
H                     7.657602916663    -0.481414596403    -7.088039991380
H                     3.183899269288    -2.297575702378    -8.217412957784
H                     6.665782390529    -2.308505159150    -5.718152310236
H                    -0.603096086066    -0.910547484537    -0.192704728529
H                    -0.535414384322    -2.671612998300    -0.208022286777
H                     1.872404472972    -0.777458945086    -0.242892487867
H                     1.363701726553    -1.779632071915     1.113726090594
H                    -1.017693608662    -1.842144558993    -2.494428984442
H                     0.414550573994    -0.818587904967    -2.456135636520
H                     3.280166055014    -2.809228325990    -0.141309841888
H                     1.850946723379    -3.840632942640    -0.178531140283
H                     0.395943359157    -3.883362277283    -2.368742290058
H                     0.902796737060    -2.894121786391    -3.732845413401
H                     2.771270397043    -1.956768428073    -2.403465602138
H                     2.694612929038    -5.002426083150    -2.301141885810
H                     4.153520060003    -3.984782000183    -2.167061853478
H                     3.253517394490    -3.775815867641    -6.420685821370
