28
0 1 C12H12O4
C                     1.125185163794     0.609933463094     0.047853955545
C                    -0.067631070068     1.341379899368     0.080601589801
C                     2.373067297735     1.245122945755     0.051567467204
C                     1.255409224670     3.384529823575     0.114846933149
C                     0.014488877320     2.731879789591     0.115855491995
C                     2.453242831088     2.643777589088     0.087582109265
C                     1.069717840468     4.849770528404     0.147043836806
C                    -0.888112662142     6.100816464718     1.112297984181
C                    -1.128905914598     3.720599136183     0.187075732953
C                    -0.470012108122     5.103643856151     0.051420572903
C                    -0.737264205236     9.736877493580     0.953070418902
C                    -0.998913384627     8.410981568109     1.642497141880
O                     1.911633030487     5.723954669558     0.219718706540
O                    -1.251110374223     5.802492219524     2.236091575956
O                     3.638186193957     3.310312508107     0.089171360723
O                    -0.768559713725     7.362619663539     0.663613940193
H                     1.091064764478    -0.476272422694     0.019863058194
H                    -1.028786041432     0.834692974157     0.082925402728
H                     3.284784020487     0.650565578492     0.024369425484
H                    -1.870904440792     3.536599208724    -0.595738892972
H                    -1.636865177620     3.639998424816     1.152859946556
H                    -0.639491201249     5.549041439780    -0.932939988631
H                     0.292607437951     9.786761912666     0.588527662828
H                    -1.413671216168     9.878061079077     0.104738616529
H                    -0.895519465600    10.557231236440     1.660718094396
H                    -2.026977035665     8.328915136413     2.006984810606
H                    -0.325825240867     8.246643939594     2.488052536640
H                     4.363371617145     2.664634463251     0.066034161416
