
  -OEChem-05262117483D

 36 36  0     0  0  0  0  0  0999 V2000
   -0.9802    0.7644    5.3138 C   0  0  0  0  0  0  0  0  0  0  0  0
    0.5817    2.4375    5.9708 C   0  0  0  0  0  0  0  0  0  0  0  0
    0.0566    1.1577    6.1631 C   0  0  0  0  0  0  0  0  0  0  0  0
   -0.8792    2.7862    4.2405 C   0  0  0  0  0  0  0  0  0  0  0  0
   -6.3681    3.3160    2.7827 C   0  0  0  0  0  0  0  0  0  0  0  0
    1.7750    4.6178    0.1973 C   0  0  0  0  0  0  0  0  0  0  0  0
   -4.9967    3.0429    2.1550 C   0  0  0  0  0  0  0  0  0  0  0  0
    0.4331    4.5121    0.9303 C   0  0  0  0  0  0  0  0  0  0  0  0
   -3.8344    3.4696    3.0576 C   0  0  0  0  0  0  0  0  0  0  0  0
    0.4993    5.0568    2.3611 C   0  0  0  0  0  0  0  0  0  0  0  0
   -2.4685    3.1936    2.4188 C   0  0  0  0  0  0  0  0  0  0  0  0
   -0.8259    4.9735    3.1296 C   0  0  0  0  0  0  0  0  0  0  0  0
   -1.4563    1.5625    4.3619 N   0  0  0  0  0  0  0  0  0  0  0  0
    0.1300    3.2521    5.0208 N   0  0  0  0  0  0  0  0  0  0  0  0
   -1.3464    3.6090    3.2625 N   0  0  0  0  0  0  0  0  0  0  0  0
    0.7234   -0.0013    7.5288 Br  0  0  0  0  0  0  0  0  0  0  0  0
   -1.4399   -0.2182    5.4087 H   0  0  0  0  0  0  0  0  0  0  0  0
    1.3886    2.8123    6.5988 H   0  0  0  0  0  0  0  0  0  0  0  0
   -6.5029    4.3842    2.9881 H   0  0  0  0  0  0  0  0  0  0  0  0
   -7.1811    2.9979    2.1213 H   0  0  0  0  0  0  0  0  0  0  0  0
   -6.4799    2.7798    3.7320 H   0  0  0  0  0  0  0  0  0  0  0  0
    2.5546    4.0548    0.7232 H   0  0  0  0  0  0  0  0  0  0  0  0
    1.7068    4.2218   -0.8217 H   0  0  0  0  0  0  0  0  0  0  0  0
    2.1084    5.6599    0.1294 H   0  0  0  0  0  0  0  0  0  0  0  0
   -4.9036    1.9726    1.9297 H   0  0  0  0  0  0  0  0  0  0  0  0
   -4.9243    3.5666    1.1921 H   0  0  0  0  0  0  0  0  0  0  0  0
   -0.3365    5.0556    0.3648 H   0  0  0  0  0  0  0  0  0  0  0  0
    0.1157    3.4627    0.9566 H   0  0  0  0  0  0  0  0  0  0  0  0
   -3.9179    4.5398    3.2894 H   0  0  0  0  0  0  0  0  0  0  0  0
   -3.8868    2.9321    4.0110 H   0  0  0  0  0  0  0  0  0  0  0  0
    1.2640    4.5177    2.9303 H   0  0  0  0  0  0  0  0  0  0  0  0
    0.8078    6.1109    2.3402 H   0  0  0  0  0  0  0  0  0  0  0  0
   -2.3811    3.7292    1.4689 H   0  0  0  0  0  0  0  0  0  0  0  0
   -2.3692    2.1277    2.2051 H   0  0  0  0  0  0  0  0  0  0  0  0
   -1.5955    5.5590    2.6163 H   0  0  0  0  0  0  0  0  0  0  0  0
   -0.6950    5.4026    4.1260 H   0  0  0  0  0  0  0  0  0  0  0  0
  1  3  1  0  0  0  0
  1 13  2  0  0  0  0
  1 17  1  0  0  0  0
  2  3  2  0  0  0  0
  2 14  1  0  0  0  0
  2 18  1  0  0  0  0
  3 16  1  0  0  0  0
  4 13  1  0  0  0  0
  4 14  2  0  0  0  0
  4 15  1  0  0  0  0
  5  7  1  0  0  0  0
  5 19  1  0  0  0  0
  5 20  1  0  0  0  0
  5 21  1  0  0  0  0
  6  8  1  0  0  0  0
  6 22  1  0  0  0  0
  6 23  1  0  0  0  0
  6 24  1  0  0  0  0
  7  9  1  0  0  0  0
  7 25  1  0  0  0  0
  7 26  1  0  0  0  0
  8 10  1  0  0  0  0
  8 27  1  0  0  0  0
  8 28  1  0  0  0  0
  9 11  1  0  0  0  0
  9 29  1  0  0  0  0
  9 30  1  0  0  0  0
 10 12  1  0  0  0  0
 10 31  1  0  0  0  0
 10 32  1  0  0  0  0
 11 15  1  0  0  0  0
 11 33  1  0  0  0  0
 11 34  1  0  0  0  0
 12 15  1  0  0  0  0
 12 35  1  0  0  0  0
 12 36  1  0  0  0  0
M  END
$$$$
