40
0 1 C16H16N4O3S
C                     2.559415935909     3.123008493398    -2.548548974965
C                     1.654534679856     2.066000267131    -2.476693102217
C                     3.140424599127     0.907939953248    -0.956077383733
C                     5.956772559978     5.796907918255    -2.691957348458
C                     4.878255566143     5.018707786401    -3.035357961520
C                     3.771818436533     3.077484536862    -1.859205973114
C                     1.941832152588     0.940220863788    -1.686700690148
C                     4.052132130070     1.962961822894    -1.039345703878
C                     5.717287481212     4.399773167123    -1.075532751873
C                     0.983097907666    -1.137157777019    -0.692538560149
C                     0.698152474174    -4.681227433344    -2.442546450418
C                     5.830009291601     3.621152905605     0.188394421395
C                    -0.162830955160    -0.169113886766    -2.495255120028
C                    -0.677653503726    -1.590905819367    -2.224469833681
C                     0.363917660202    -6.008280097863    -1.788328083352
C                    -0.235424114641    -2.581010721233    -3.312045320051
N                     6.474075912474     5.403893285079    -1.470114061807
N                     4.722342422947     4.116275530728    -1.988058348450
N                     1.022578210656    -0.130081447617    -1.649837321927
N                    -0.385818384039    -3.965139439550    -2.913198217369
O                     1.719039524425    -1.317746088416     0.248680919245
O                     1.849580567741    -4.273402934536    -2.551928110128
O                    -0.092027102582    -1.946969045109    -0.958868042088
S                     5.583939306255     1.830872676940    -0.144910771096
H                     2.311101006206     3.995958799676    -3.143768316459
H                     0.723689566216     2.140574946552    -3.026606174804
H                     3.355572722721     0.063988489322    -0.314389922432
H                     6.398324723944     6.607298905271    -3.257183195533
H                     4.257025741257     4.991234895329    -3.917477326619
H                     6.832259096207     3.743423025538     0.600482596241
H                     5.097430056256     3.944761634808     0.935259298260
H                     0.095292247683    -0.025354245440    -3.549043144215
H                    -0.887954432864     0.600611472059    -2.202310061725
H                    -1.761965390193    -1.618451562265    -2.089387878386
H                     1.106356165496    -6.748933572006    -2.090811111077
H                     0.436709287596    -5.884286876389    -0.703164877756
H                    -0.637603086377    -6.373943942317    -2.033654352463
H                     0.824300060742    -2.435650181258    -3.533612013954
H                    -0.809561295359    -2.378310168576    -4.224739422527
H                    -1.310034060835    -4.295208046633    -2.666920413549
