40
0 1 C16H16N4O3S
C                     0.351912825378     2.421682390030     2.894800387371
C                     0.401234607378     1.186234983896     2.258163276949
C                     2.060195738182     0.463778702212     3.865874266955
C                     1.005242164147     6.154766658149     4.996108818527
C                     0.797240642284     5.213121799654     4.017757953238
C                     1.169730819837     2.715227450622     3.991150256322
C                     1.272103765522     0.189619990523     2.737204592939
C                     2.023777471497     1.714707198227     4.490753239676
C                     1.573523607438     4.276653453178     5.873883178342
C                     0.503900235686    -1.598158314750     1.178131132341
C                     4.383457845244    -5.229795644385     2.399440854902
C                     2.020244493934     3.184355880428     6.781959278303
C                     2.320689543802    -2.086986006528     2.584220413853
C                     2.133076801816    -3.197290273233     1.539732028256
C                     5.457167047157    -5.712901485862     3.357589406488
C                     2.009342512043    -4.603316603824     2.125257578808
N                     1.490613614350     5.562623392029     6.148914513835
N                     1.162927537697     3.997778095051     4.586898330519
N                     1.377874420490    -1.076169500227     2.123702141773
N                     3.158742380489    -4.951248434338     2.955526885488
O                    -0.460054257751    -1.071384727514     0.668662565955
O                     4.592868274971    -5.082154874518     1.197217146718
O                     0.891955494128    -2.873804524814     0.875433798429
S                     3.105920593958     2.012798123897     5.871560989988
H                    -0.342334580279     3.172226344994     2.529993868208
H                    -0.239964830824     0.984264066069     1.412119747963
H                     2.712650526942    -0.293769907989     4.284214395374
H                     0.845279016087     7.223265036193     4.934840204816
H                     0.475452806571     5.294937523063     2.990832636465
H                     2.605424206011     3.608778456374     7.598443518645
H                     1.175331954233     2.627738413045     7.200769527755
H                     2.070141475687    -2.427508366530     3.598163404950
H                     3.344932371334    -1.706526838231     2.591573204193
H                     2.929330994278    -3.176904626085     0.793584578102
H                     5.784490663880    -6.706853024498     3.040883153694
H                     6.319682640312    -5.045697274090     3.283464961621
H                     5.130155338066    -5.759978450508     4.400054885194
H                     1.906946219060    -5.320784871704     1.306049404065
H                     1.109277514747    -4.652499894856     2.744034154020
H                     3.002142042475    -5.176930497074     3.927584034539
