
  -OEChem-05262117483D

 40 41  0     1  0  0  0  0  0999 V2000
    6.0046   -9.2039   -3.2603 C   0  0  0  0  0  0  0  0  0  0  0  0
    4.6459   -9.5290   -3.3178 C   0  0  0  0  0  0  0  0  0  0  0  0
    6.4181   -8.0877   -2.5263 C   0  0  0  0  0  0  0  0  0  0  0  0
    3.7068   -8.7409   -2.6475 C   0  0  0  0  0  0  0  0  0  0  0  0
    5.4805   -7.3003   -1.8530 C   0  0  0  0  0  0  0  0  0  0  0  0
    4.1172   -7.6213   -1.9136 C   0  0  0  0  0  0  0  0  0  0  0  0
    3.0909   -7.1991    0.3322 C   0  0  0  0  0  0  0  0  0  0  0  0
    3.2883   -5.3221   -1.4258 C   0  0  0  0  0  0  0  0  0  0  0  0
   -0.2886   -0.5342   -1.8230 C   0  0  0  0  0  0  0  0  0  0  0  0
   -0.5239   -1.9905   -1.3991 C   0  0  0  0  0  0  0  0  0  0  0  0
    1.1933   -0.1524   -1.7034 C   0  0  0  0  0  0  0  0  0  0  0  0
    0.3723   -2.9565   -2.1863 C   0  0  0  0  0  0  0  0  0  0  0  0
    2.0905   -1.1212   -2.4873 C   0  0  0  0  0  0  0  0  0  0  0  0
    1.8571   -2.5800   -2.0558 C   0  0  0  0  0  0  0  0  0  0  0  0
    2.7602   -3.5003   -2.8694 C   0  0  0  0  0  0  0  0  0  0  0  0
    3.0690   -6.7995   -1.1605 C   0  0  1  0  0  0  0  0  0  0  0  0
    2.4452   -8.1460    0.7210 O   0  0  0  0  0  0  0  0  0  0  0  0
    4.0365   -4.6089   -0.7608 O   0  0  0  0  0  0  0  0  0  0  0  0
    3.8888   -6.4885    1.1484 O   0  0  0  0  0  0  0  0  0  0  0  0
    2.6020   -4.9017   -2.4857 O   0  0  0  0  0  0  0  0  0  0  0  0
    6.7355   -9.8164   -3.7816 H   0  0  0  0  0  0  0  0  0  0  0  0
    4.3157  -10.3971   -3.8821 H   0  0  0  0  0  0  0  0  0  0  0  0
    7.4727   -7.8301   -2.4740 H   0  0  0  0  0  0  0  0  0  0  0  0
    2.6526   -9.0017   -2.6854 H   0  0  0  0  0  0  0  0  0  0  0  0
    5.8157   -6.4366   -1.2860 H   0  0  0  0  0  0  0  0  0  0  0  0
   -0.9030    0.1418   -1.2172 H   0  0  0  0  0  0  0  0  0  0  0  0
   -0.6125   -0.4045   -2.8651 H   0  0  0  0  0  0  0  0  0  0  0  0
   -0.3118   -2.0949   -0.3262 H   0  0  0  0  0  0  0  0  0  0  0  0
   -1.5767   -2.2623   -1.5372 H   0  0  0  0  0  0  0  0  0  0  0  0
    1.3532    0.8721   -2.0587 H   0  0  0  0  0  0  0  0  0  0  0  0
    1.4876   -0.1677   -0.6454 H   0  0  0  0  0  0  0  0  0  0  0  0
    0.2125   -3.9851   -1.8456 H   0  0  0  0  0  0  0  0  0  0  0  0
    0.0903   -2.9303   -3.2490 H   0  0  0  0  0  0  0  0  0  0  0  0
    1.8761   -1.0236   -3.5615 H   0  0  0  0  0  0  0  0  0  0  0  0
    3.1451   -0.8529   -2.3494 H   0  0  0  0  0  0  0  0  0  0  0  0
    2.1513   -2.6703   -1.0023 H   0  0  0  0  0  0  0  0  0  0  0  0
    3.8118   -3.2280   -2.7579 H   0  0  0  0  0  0  0  0  0  0  0  0
    2.4883   -3.4900   -3.9273 H   0  0  0  0  0  0  0  0  0  0  0  0
    2.0832   -7.0748   -1.5330 H   0  0  0  0  0  0  0  0  0  0  0  0
    4.2292   -5.7016    0.6589 H   0  0  0  0  0  0  0  0  0  0  0  0
  1  2  1  0  0  0  0
  1  3  2  0  0  0  0
  1 21  1  0  0  0  0
  2  4  2  0  0  0  0
  2 22  1  0  0  0  0
  3  5  1  0  0  0  0
  3 23  1  0  0  0  0
  4  6  1  0  0  0  0
  4 24  1  0  0  0  0
  5  6  2  0  0  0  0
  5 25  1  0  0  0  0
  6 16  1  0  0  0  0
  7 16  1  0  0  0  0
  7 17  2  0  0  0  0
  7 19  1  0  0  0  0
  8 16  1  0  0  0  0
  8 18  2  0  0  0  0
  8 20  1  0  0  0  0
  9 10  1  0  0  0  0
  9 11  1  0  0  0  0
  9 26  1  0  0  0  0
  9 27  1  0  0  0  0
 10 12  1  0  0  0  0
 10 28  1  0  0  0  0
 10 29  1  0  0  0  0
 11 13  1  0  0  0  0
 11 30  1  0  0  0  0
 11 31  1  0  0  0  0
 12 14  1  0  0  0  0
 12 32  1  0  0  0  0
 12 33  1  0  0  0  0
 13 14  1  0  0  0  0
 13 34  1  0  0  0  0
 13 35  1  0  0  0  0
 14 15  1  0  0  0  0
 14 36  1  0  0  0  0
 15 20  1  0  0  0  0
 15 37  1  0  0  0  0
 15 38  1  0  0  0  0
 16 39  1  0  0  0  0
 19 40  1  0  0  0  0
M  END
$$$$
