
  -OEChem-05262117483D

 40 43  0     1  0  0  0  0  0999 V2000
    0.3519    2.4217    2.8948 C   0  0  0  0  0  0  0  0  0  0  0  0
    0.4012    1.1862    2.2582 C   0  0  0  0  0  0  0  0  0  0  0  0
    2.0602    0.4638    3.8659 C   0  0  0  0  0  0  0  0  0  0  0  0
    1.0052    6.1548    4.9961 C   0  0  0  0  0  0  0  0  0  0  0  0
    0.7972    5.2131    4.0178 C   0  0  0  0  0  0  0  0  0  0  0  0
    1.1697    2.7152    3.9912 C   0  0  0  0  0  0  0  0  0  0  0  0
    1.2721    0.1896    2.7372 C   0  0  0  0  0  0  0  0  0  0  0  0
    2.0238    1.7147    4.4908 C   0  0  0  0  0  0  0  0  0  0  0  0
    1.5735    4.2767    5.8739 C   0  0  0  0  0  0  0  0  0  0  0  0
    0.5039   -1.5982    1.1781 C   0  0  0  0  0  0  0  0  0  0  0  0
    4.3835   -5.2298    2.3994 C   0  0  0  0  0  0  0  0  0  0  0  0
    2.0202    3.1844    6.7820 C   0  0  0  0  0  0  0  0  0  0  0  0
    2.3207   -2.0870    2.5842 C   0  0  0  0  0  0  0  0  0  0  0  0
    2.1331   -3.1973    1.5397 C   0  0  1  0  0  0  0  0  0  0  0  0
    5.4572   -5.7129    3.3576 C   0  0  0  0  0  0  0  0  0  0  0  0
    2.0093   -4.6033    2.1253 C   0  0  0  0  0  0  0  0  0  0  0  0
    1.4906    5.5626    6.1489 N   0  0  0  0  0  0  0  0  0  0  0  0
    1.1629    3.9978    4.5869 N   0  0  0  0  0  0  0  0  0  0  0  0
    1.3779   -1.0762    2.1237 N   0  0  0  0  0  0  0  0  0  0  0  0
    3.1587   -4.9512    2.9555 N   0  0  0  0  0  0  0  0  0  0  0  0
   -0.4601   -1.0714    0.6687 O   0  0  0  0  0  0  0  0  0  0  0  0
    4.5929   -5.0822    1.1972 O   0  0  0  0  0  0  0  0  0  0  0  0
    0.8920   -2.8738    0.8754 O   0  0  0  0  0  0  0  0  0  0  0  0
    3.1059    2.0128    5.8716 S   0  0  0  0  0  0  0  0  0  0  0  0
   -0.3423    3.1722    2.5300 H   0  0  0  0  0  0  0  0  0  0  0  0
   -0.2400    0.9843    1.4121 H   0  0  0  0  0  0  0  0  0  0  0  0
    2.7127   -0.2938    4.2842 H   0  0  0  0  0  0  0  0  0  0  0  0
    0.8453    7.2233    4.9348 H   0  0  0  0  0  0  0  0  0  0  0  0
    0.4755    5.2949    2.9908 H   0  0  0  0  0  0  0  0  0  0  0  0
    2.6054    3.6088    7.5984 H   0  0  0  0  0  0  0  0  0  0  0  0
    1.1753    2.6277    7.2008 H   0  0  0  0  0  0  0  0  0  0  0  0
    2.0701   -2.4275    3.5982 H   0  0  0  0  0  0  0  0  0  0  0  0
    3.3449   -1.7065    2.5916 H   0  0  0  0  0  0  0  0  0  0  0  0
    2.9293   -3.1769    0.7936 H   0  0  0  0  0  0  0  0  0  0  0  0
    5.7845   -6.7069    3.0409 H   0  0  0  0  0  0  0  0  0  0  0  0
    6.3197   -5.0457    3.2835 H   0  0  0  0  0  0  0  0  0  0  0  0
    5.1302   -5.7600    4.4001 H   0  0  0  0  0  0  0  0  0  0  0  0
    1.9069   -5.3208    1.3060 H   0  0  0  0  0  0  0  0  0  0  0  0
    1.1093   -4.6525    2.7440 H   0  0  0  0  0  0  0  0  0  0  0  0
    3.0021   -5.1769    3.9276 H   0  0  0  0  0  0  0  0  0  0  0  0
  1  2  1  0  0  0  0
  1  6  2  0  0  0  0
  1 25  1  0  0  0  0
  2  7  2  0  0  0  0
  2 26  1  0  0  0  0
  3  7  1  0  0  0  0
  3  8  2  0  0  0  0
  3 27  1  0  0  0  0
  4  5  2  0  0  0  0
  4 17  1  0  0  0  0
  4 28  1  0  0  0  0
  5 18  1  0  0  0  0
  5 29  1  0  0  0  0
  6  8  1  0  0  0  0
  6 18  1  0  0  0  0
  7 19  1  0  0  0  0
  8 24  1  0  0  0  0
  9 12  1  0  0  0  0
  9 17  2  0  0  0  0
  9 18  1  0  0  0  0
 10 19  1  0  0  0  0
 10 21  2  0  0  0  0
 10 23  1  0  0  0  0
 11 15  1  0  0  0  0
 11 20  1  0  0  0  0
 11 22  2  0  0  0  0
 12 24  1  0  0  0  0
 12 30  1  0  0  0  0
 12 31  1  0  0  0  0
 13 14  1  0  0  0  0
 13 19  1  0  0  0  0
 13 32  1  0  0  0  0
 13 33  1  0  0  0  0
 14 16  1  0  0  0  0
 14 23  1  0  0  0  0
 14 34  1  0  0  0  0
 15 35  1  0  0  0  0
 15 36  1  0  0  0  0
 15 37  1  0  0  0  0
 16 20  1  0  0  0  0
 16 38  1  0  0  0  0
 16 39  1  0  0  0  0
 20 40  1  0  0  0  0
M  END
$$$$
