36
0 1 C14F2H15N3OS
C                     1.757169462424    -1.453827818216    -1.300167752830
C                     1.649749727223    -2.162517501847    -2.496707420424
C                    -0.245635287435    -3.371428623529    -1.573544187140
C                     3.112921671956    -4.080090673527     2.513984214961
C                     1.012250534207    -4.043713587411     2.627480709035
C                     0.887777391337    -1.662197943757    -0.218839563273
C                     0.642865462690    -3.114629882451    -2.609836295090
C                    -0.100753245370    -2.631797742011    -0.405390442392
C                     0.820511051370     1.714085531423     0.291455429747
C                     0.546830160243     1.688378779876     1.774628034625
C                     0.183188540041     0.487997772575     0.919368106624
C                    -2.369670625639    -0.021296048913     2.083942835392
C                     0.718367117707    -1.527547241429     2.348540950041
C                     1.055064828252    -0.786695241163     1.032534298867
N                     2.031880000108    -4.894663658079     2.663121132847
N                     2.821704334912    -2.787684563933     2.399358467303
N                     1.457882363421    -2.777056590001     2.476740278365
O                     2.407239715172    -0.335509130905     1.122432172274
F                     0.519943264139    -3.820192557401    -3.760034739573
F                    -0.991398385597    -2.915115463446     0.590839405223
S                    -1.556212612178     0.290537926424     0.476217123676
H                     2.541354937788    -0.715372630874    -1.181298956461
H                     2.330084190868    -1.989775375037    -3.324276695639
H                    -1.027374556474    -4.117241099217    -1.666461339331
H                     4.134258337624    -4.437174576273     2.490402908972
H                    -0.037854855810    -4.293073668564     2.696723689929
H                     0.184889977068     2.326426041729    -0.338692936176
H                     1.853730978689     1.623422901695    -0.020907273000
H                     1.407824204873     1.581744296029     2.426405233134
H                    -0.267387566480     2.292899114654     2.161633638319
H                    -3.416821026611     0.269054019601     1.966289802497
H                    -1.921409076736     0.597001811427     2.865936776255
H                    -2.334063920999    -1.074545174904     2.372003127656
H                     0.989359994982    -0.868659837998     3.176700083217
H                    -0.336073228519    -1.771965172566     2.418542347713
H                     2.940814309086    -1.081632286533     1.474431618669
