
  -OEChem-05262117483D

 58 60  0     0  0  0  0  0  0999 V2000
    2.1122   -6.8122    6.7622 C   0  0  0  0  0  0  0  0  0  0  0  0
    1.8993   -7.0776    8.1155 C   0  0  0  0  0  0  0  0  0  0  0  0
   -3.1239   -3.8066    9.5512 C   0  0  0  0  0  0  0  0  0  0  0  0
   -2.2678   -4.6561   11.6807 C   0  0  0  0  0  0  0  0  0  0  0  0
   -1.8235   -3.4870    9.1608 C   0  0  0  0  0  0  0  0  0  0  0  0
   -0.9680   -4.3396   11.2822 C   0  0  0  0  0  0  0  0  0  0  0  0
    1.0022   -1.8044    3.6016 C   0  0  0  0  0  0  0  0  0  0  0  0
   -0.8316   -3.3674    3.4080 C   0  0  0  0  0  0  0  0  0  0  0  0
    1.5703   -4.5038    7.1099 C   0  0  0  0  0  0  0  0  0  0  0  0
    1.9512   -5.5247    6.2344 C   0  0  0  0  0  0  0  0  0  0  0  0
    1.8390   -2.8242    4.0729 C   0  0  0  0  0  0  0  0  0  0  0  0
   -0.0149   -4.4007    3.8787 C   0  0  0  0  0  0  0  0  0  0  0  0
    1.3324   -4.1334    4.2016 C   0  0  0  0  0  0  0  0  0  0  0  0
    1.5234   -6.0493    8.9879 C   0  0  0  0  0  0  0  0  0  0  0  0
   -0.3205   -2.0783    3.2607 C   0  0  0  0  0  0  0  0  0  0  0  0
   -3.3160   -4.3869   10.8040 C   0  0  0  0  0  0  0  0  0  0  0  0
   -0.7623   -3.7638   10.0273 C   0  0  0  0  0  0  0  0  0  0  0  0
    1.3660   -4.7548    8.4670 C   0  0  0  0  0  0  0  0  0  0  0  0
   -2.2644    0.4210    1.3349 C   0  0  0  0  0  0  0  0  0  0  0  0
    3.2650   -2.4840    4.4515 C   0  0  0  0  0  0  0  0  0  0  0  0
   -0.5979   -5.7857    4.0482 C   0  0  0  0  0  0  0  0  0  0  0  0
   -1.8071   -1.9357    0.6337 C   0  0  0  0  0  0  0  0  0  0  0  0
    0.0892   -0.2699    0.8608 C   0  0  0  0  0  0  0  0  0  0  0  0
    2.1984   -5.2458    4.7578 C   0  0  0  0  0  0  0  0  0  0  0  0
   -1.2543   -0.7452    1.4210 C   0  0  0  0  0  0  0  0  0  0  0  0
   -2.5932    0.8978    0.2710 O   0  0  0  0  0  0  0  0  0  0  0  0
    0.8207   -2.1923    8.6120 O   0  0  0  0  0  0  0  0  0  0  0  0
    1.7653   -3.3299   10.6992 O   0  0  0  0  0  0  0  0  0  0  0  0
    1.2797   -6.2638   10.3143 O   0  0  0  0  0  0  0  0  0  0  0  0
   -2.7478    0.8730    2.5076 O   0  0  0  0  0  0  0  0  0  0  0  0
   -1.1586   -1.0482    2.8471 O   0  0  0  0  0  0  0  0  0  0  0  0
   -4.5775   -4.6967   11.1867 F   0  0  0  0  0  0  0  0  0  0  0  0
    0.9067   -3.3558    9.5099 S   0  0  0  0  0  0  0  0  0  0  0  0
    2.3977   -7.6304    6.1045 H   0  0  0  0  0  0  0  0  0  0  0  0
    2.0194   -8.0899    8.4980 H   0  0  0  0  0  0  0  0  0  0  0  0
   -3.9780   -3.6046    8.9126 H   0  0  0  0  0  0  0  0  0  0  0  0
   -2.4754   -5.0983   12.6501 H   0  0  0  0  0  0  0  0  0  0  0  0
   -1.6323   -3.0141    8.2026 H   0  0  0  0  0  0  0  0  0  0  0  0
   -0.1193   -4.5259   11.9308 H   0  0  0  0  0  0  0  0  0  0  0  0
    1.3708   -0.7867    3.5169 H   0  0  0  0  0  0  0  0  0  0  0  0
   -1.8735   -3.5547    3.1662 H   0  0  0  0  0  0  0  0  0  0  0  0
    1.4104   -3.4927    6.7506 H   0  0  0  0  0  0  0  0  0  0  0  0
    3.4959   -2.7788    5.4804 H   0  0  0  0  0  0  0  0  0  0  0  0
    3.9873   -2.9867    3.7980 H   0  0  0  0  0  0  0  0  0  0  0  0
    3.4409   -1.4089    4.3712 H   0  0  0  0  0  0  0  0  0  0  0  0
   -0.0987   -6.5155    3.3998 H   0  0  0  0  0  0  0  0  0  0  0  0
   -0.4898   -6.1433    5.0775 H   0  0  0  0  0  0  0  0  0  0  0  0
   -1.6615   -5.7958    3.7979 H   0  0  0  0  0  0  0  0  0  0  0  0
   -1.0933   -2.7634    0.6415 H   0  0  0  0  0  0  0  0  0  0  0  0
   -2.7531   -2.2796    1.0616 H   0  0  0  0  0  0  0  0  0  0  0  0
   -1.9850   -1.6302   -0.3994 H   0  0  0  0  0  0  0  0  0  0  0  0
    0.8168   -1.0855    0.8701 H   0  0  0  0  0  0  0  0  0  0  0  0
    0.4834    0.5632    1.4497 H   0  0  0  0  0  0  0  0  0  0  0  0
   -0.0509    0.0679   -0.1682 H   0  0  0  0  0  0  0  0  0  0  0  0
    3.2560   -5.0038    4.6187 H   0  0  0  0  0  0  0  0  0  0  0  0
    2.0297   -6.1702    4.1967 H   0  0  0  0  0  0  0  0  0  0  0  0
    1.4281   -7.2008   10.5193 H   0  0  0  0  0  0  0  0  0  0  0  0
   -2.3381    0.3316    3.2156 H   0  0  0  0  0  0  0  0  0  0  0  0
  1  2  1  0  0  0  0
  1 10  2  0  0  0  0
  1 34  1  0  0  0  0
  2 14  2  0  0  0  0
  2 35  1  0  0  0  0
  3  5  2  0  0  0  0
  3 16  1  0  0  0  0
  3 36  1  0  0  0  0
  4  6  1  0  0  0  0
  4 16  2  0  0  0  0
  4 37  1  0  0  0  0
  5 17  1  0  0  0  0
  5 38  1  0  0  0  0
  6 17  2  0  0  0  0
  6 39  1  0  0  0  0
  7 11  2  0  0  0  0
  7 15  1  0  0  0  0
  7 40  1  0  0  0  0
  8 12  1  0  0  0  0
  8 15  2  0  0  0  0
  8 41  1  0  0  0  0
  9 10  1  0  0  0  0
  9 18  2  0  0  0  0
  9 42  1  0  0  0  0
 10 24  1  0  0  0  0
 11 13  1  0  0  0  0
 11 20  1  0  0  0  0
 12 13  2  0  0  0  0
 12 21  1  0  0  0  0
 13 24  1  0  0  0  0
 14 18  1  0  0  0  0
 14 29  1  0  0  0  0
 15 31  1  0  0  0  0
 16 32  1  0  0  0  0
 17 33  1  0  0  0  0
 18 33  1  0  0  0  0
 19 25  1  0  0  0  0
 19 26  2  0  0  0  0
 19 30  1  0  0  0  0
 20 43  1  0  0  0  0
 20 44  1  0  0  0  0
 20 45  1  0  0  0  0
 21 46  1  0  0  0  0
 21 47  1  0  0  0  0
 21 48  1  0  0  0  0
 22 25  1  0  0  0  0
 22 49  1  0  0  0  0
 22 50  1  0  0  0  0
 22 51  1  0  0  0  0
 23 25  1  0  0  0  0
 23 52  1  0  0  0  0
 23 53  1  0  0  0  0
 23 54  1  0  0  0  0
 24 55  1  0  0  0  0
 24 56  1  0  0  0  0
 25 31  1  0  0  0  0
 27 33  2  0  0  0  0
 28 33  2  0  0  0  0
 29 57  1  0  0  0  0
 30 58  1  0  0  0  0
M  END
$$$$
