
  -OEChem-05262117483D

 68 70  0     1  0  0  0  0  0999 V2000
   -5.1050    2.0556   -0.3609 C   0  0  0  0  0  0  0  0  0  0  0  0
   -3.7806    1.9681   -0.7867 C   0  0  0  0  0  0  0  0  0  0  0  0
   -4.7620    0.1696    1.1002 C   0  0  0  0  0  0  0  0  0  0  0  0
   -3.4333    0.0813    0.6721 C   0  0  0  0  0  0  0  0  0  0  0  0
   -5.6134    1.1512    0.5843 C   0  0  0  0  0  0  0  0  0  0  0  0
   -2.9301    0.9734   -0.2796 C   0  0  0  0  0  0  0  0  0  0  0  0
   -8.0566    0.6044   -0.0345 C   0  0  0  0  0  0  0  0  0  0  0  0
   -1.3819    0.1733   -2.1875 C   0  0  0  0  0  0  0  0  0  0  0  0
   -9.1132    1.7143   -0.1544 C   0  0  0  0  0  0  0  0  0  0  0  0
   -0.5400    1.2024   -2.9545 C   0  0  0  0  0  0  0  0  0  0  0  0
   -7.0609    1.1966    1.0027 C   0  0  2  0  0  0  0  0  0  0  0  0
   -1.5157    0.8312   -0.7811 C   0  0  1  0  0  0  0  0  0  0  0  0
   -8.8745    4.5345    2.3866 C   0  0  0  0  0  0  0  0  0  0  0  0
    1.3857    3.1684   -3.5823 C   0  0  0  0  0  0  0  0  0  0  0  0
  -11.4124    3.8521   -0.5216 C   0  0  0  0  0  0  0  0  0  0  0  0
  -11.6883    2.9629    1.8263 C   0  0  0  0  0  0  0  0  0  0  0  0
  -11.4107    5.4114    1.3894 C   0  0  0  0  0  0  0  0  0  0  0  0
    1.0504    3.6856    0.3091 C   0  0  0  0  0  0  0  0  0  0  0  0
    2.9806    2.8784   -1.0584 C   0  0  0  0  0  0  0  0  0  0  0  0
    2.0704    5.2085   -1.3705 C   0  0  0  0  0  0  0  0  0  0  0  0
   -9.4008    3.8857    1.0963 C   0  0  2  0  0  0  0  0  0  0  0  0
    0.7210    3.2325   -2.1972 C   0  0  2  0  0  0  0  0  0  0  0  0
  -10.9610    3.9996    0.9493 C   0  0  0  0  0  0  0  0  0  0  0  0
    1.7027    3.7372   -1.0870 C   0  0  0  0  0  0  0  0  0  0  0  0
   -8.9399    2.4809    1.0905 N   0  0  2  0  0  0  0  0  0  0  0  0
    0.1733    1.9009   -1.8708 N   0  0  1  0  0  0  0  0  0  0  0  0
   -7.4703    2.5575    1.1486 O   0  0  0  0  0  0  0  0  0  0  0  0
   -0.9390    2.1303   -0.9402 O   0  0  0  0  0  0  0  0  0  0  0  0
   -5.7527    2.8383   -0.7451 H   0  0  0  0  0  0  0  0  0  0  0  0
   -3.3886    2.6829   -1.5043 H   0  0  0  0  0  0  0  0  0  0  0  0
   -5.1335   -0.5262    1.8497 H   0  0  0  0  0  0  0  0  0  0  0  0
   -2.7820   -0.6825    1.0921 H   0  0  0  0  0  0  0  0  0  0  0  0
   -8.4856   -0.3308    0.3337 H   0  0  0  0  0  0  0  0  0  0  0  0
   -7.5742    0.4062   -0.9937 H   0  0  0  0  0  0  0  0  0  0  0  0
   -2.3538    0.0136   -2.6587 H   0  0  0  0  0  0  0  0  0  0  0  0
   -0.8722   -0.7903   -2.1117 H   0  0  0  0  0  0  0  0  0  0  0  0
   -8.9288    2.3379   -1.0424 H   0  0  0  0  0  0  0  0  0  0  0  0
  -10.1252    1.3120   -0.2025 H   0  0  0  0  0  0  0  0  0  0  0  0
    0.1759    0.7427   -3.6382 H   0  0  0  0  0  0  0  0  0  0  0  0
   -1.1911    1.8883   -3.5190 H   0  0  0  0  0  0  0  0  0  0  0  0
   -7.1885    0.6829    1.9643 H   0  0  0  0  0  0  0  0  0  0  0  0
   -0.9192    0.2628   -0.0555 H   0  0  0  0  0  0  0  0  0  0  0  0
   -9.3678    4.1138    3.2683 H   0  0  0  0  0  0  0  0  0  0  0  0
   -9.0376    5.6136    2.3757 H   0  0  0  0  0  0  0  0  0  0  0  0
   -7.8043    4.3560    2.4833 H   0  0  0  0  0  0  0  0  0  0  0  0
    2.1070    2.3488   -3.6427 H   0  0  0  0  0  0  0  0  0  0  0  0
    1.9152    4.0978   -3.7963 H   0  0  0  0  0  0  0  0  0  0  0  0
    0.6460    3.0308   -4.3743 H   0  0  0  0  0  0  0  0  0  0  0  0
  -10.8934    4.5728   -1.1638 H   0  0  0  0  0  0  0  0  0  0  0  0
  -11.2445    2.8568   -0.9328 H   0  0  0  0  0  0  0  0  0  0  0  0
  -12.4865    4.0536   -0.6003 H   0  0  0  0  0  0  0  0  0  0  0  0
  -11.3898    3.0474    2.8754 H   0  0  0  0  0  0  0  0  0  0  0  0
  -11.4816    1.9373    1.5109 H   0  0  0  0  0  0  0  0  0  0  0  0
  -12.7713    3.1225    1.7710 H   0  0  0  0  0  0  0  0  0  0  0  0
  -11.2795    5.5746    2.4616 H   0  0  0  0  0  0  0  0  0  0  0  0
  -12.4744    5.5431    1.1646 H   0  0  0  0  0  0  0  0  0  0  0  0
  -10.8606    6.1943    0.8545 H   0  0  0  0  0  0  0  0  0  0  0  0
    0.1024    4.2316    0.3323 H   0  0  0  0  0  0  0  0  0  0  0  0
    0.8461    2.6603    0.6210 H   0  0  0  0  0  0  0  0  0  0  0  0
    1.7265    4.1411    1.0422 H   0  0  0  0  0  0  0  0  0  0  0  0
    3.5788    2.9954   -1.9679 H   0  0  0  0  0  0  0  0  0  0  0  0
    2.7283    1.8195   -0.9456 H   0  0  0  0  0  0  0  0  0  0  0  0
    3.6126    3.1703   -0.2123 H   0  0  0  0  0  0  0  0  0  0  0  0
    2.6421    5.3339   -2.2949 H   0  0  0  0  0  0  0  0  0  0  0  0
    2.6866    5.6030   -0.5554 H   0  0  0  0  0  0  0  0  0  0  0  0
    1.1732    5.8352   -1.4385 H   0  0  0  0  0  0  0  0  0  0  0  0
   -8.9480    4.4137    0.2378 H   0  0  0  0  0  0  0  0  0  0  0  0
   -0.1210    3.9427   -2.2508 H   0  0  0  0  0  0  0  0  0  0  0  0
  1  2  1  0  0  0  0
  1  5  2  0  0  0  0
  1 29  1  0  0  0  0
  2  6  2  0  0  0  0
  2 30  1  0  0  0  0
  3  4  2  0  0  0  0
  3  5  1  0  0  0  0
  3 31  1  0  0  0  0
  4  6  1  0  0  0  0
  4 32  1  0  0  0  0
  5 11  1  0  0  0  0
  6 12  1  0  0  0  0
  7  9  1  0  0  0  0
  7 11  1  0  0  0  0
  7 33  1  0  0  0  0
  7 34  1  0  0  0  0
  8 10  1  0  0  0  0
  8 12  1  0  0  0  0
  8 35  1  0  0  0  0
  8 36  1  0  0  0  0
  9 25  1  0  0  0  0
  9 37  1  0  0  0  0
  9 38  1  0  0  0  0
 10 26  1  0  0  0  0
 10 39  1  0  0  0  0
 10 40  1  0  0  0  0
 11 27  1  0  0  0  0
 11 41  1  0  0  0  0
 12 28  1  0  0  0  0
 12 42  1  0  0  0  0
 13 21  1  0  0  0  0
 13 43  1  0  0  0  0
 13 44  1  0  0  0  0
 13 45  1  0  0  0  0
 14 22  1  0  0  0  0
 14 46  1  0  0  0  0
 14 47  1  0  0  0  0
 14 48  1  0  0  0  0
 15 23  1  0  0  0  0
 15 49  1  0  0  0  0
 15 50  1  0  0  0  0
 15 51  1  0  0  0  0
 16 23  1  0  0  0  0
 16 52  1  0  0  0  0
 16 53  1  0  0  0  0
 16 54  1  0  0  0  0
 17 23  1  0  0  0  0
 17 55  1  0  0  0  0
 17 56  1  0  0  0  0
 17 57  1  0  0  0  0
 18 24  1  0  0  0  0
 18 58  1  0  0  0  0
 18 59  1  0  0  0  0
 18 60  1  0  0  0  0
 19 24  1  0  0  0  0
 19 61  1  0  0  0  0
 19 62  1  0  0  0  0
 19 63  1  0  0  0  0
 20 24  1  0  0  0  0
 20 64  1  0  0  0  0
 20 65  1  0  0  0  0
 20 66  1  0  0  0  0
 21 23  1  0  0  0  0
 21 25  1  0  0  0  0
 21 67  1  0  0  0  0
 22 24  1  0  0  0  0
 22 26  1  0  0  0  0
 22 68  1  0  0  0  0
 25 27  1  0  0  0  0
 26 28  1  0  0  0  0
M  END
$$$$
