56
-2 1 C25FH23O6S
C                     3.715102985254    -6.694065541871    -0.433183639138
C                     3.433490950139    -7.961926348642    -0.903214363714
C                    -1.942658388718    -9.805365264509     1.966177225337
C                    -0.997123553840   -11.425816169403     0.401286101612
C                    -0.653646517006    -9.506452447255     2.418865902535
C                     0.289267689448   -11.122856215425     0.859189354546
C                     4.275612519270    -2.014641570920    -1.012324798937
C                     1.936853034253    -2.284400629194    -0.484454666561
C                     3.026196983235    -7.309409476812     1.776774123386
C                     3.524736193392    -6.332448654220     0.924915079732
C                     4.582881452148    -3.101616314152    -0.181951540685
C                     2.227034464574    -3.377844018775     0.338307076029
C                     3.565626123927    -3.787831375970     0.515804574466
C                     2.924755283605    -9.025949157510    -0.060159802242
C                     2.950961033387    -1.587652628379    -1.155316440085
C                    -2.081360974489   -10.762161577817     0.965252887933
C                     0.446506215177   -10.165623759552     1.866618216513
C                     2.745202191002    -8.610062374016     1.317776098056
C                     4.565101023785     1.022969468410    -2.411388438045
C                     6.036241758174    -3.524206592840    -0.071632300669
C                     1.096910542790    -4.101738000856     1.038010653276
C                     3.135179378739     1.148656840141    -0.285919389440
C                     2.141175679105     1.679521612811    -2.537030570416
C                     3.886215913018    -4.946814029856     1.445478888820
C                     3.132562316968     0.792808904855    -1.776398386399
O                     2.645537627199   -10.181934572841    -0.507125237403
O                     5.076463563034     0.088041207537    -3.077666446820
O                     5.014293993371     2.183855376927    -2.186284781875
O                     1.872221377657    -9.050622658803     3.772008051311
O                     2.856118353495   -11.031073000036     2.528173382184
O                     2.568829712731    -0.549234127643    -1.964375461603
F                    -3.343121071827   -11.064109512131     0.519492548034
S                     2.100157264344    -9.762960622418     2.486439202327
H                     4.070374630682    -5.934928659190    -1.129108483634
H                     3.573934407222    -8.209487412490    -1.953759129570
H                    -2.821091140235    -9.312473179539     2.372746346465
H                    -1.160020195767   -12.155134926991    -0.387095823117
H                    -0.489983123759    -8.772768131140     3.201884817322
H                     1.173279450462   -11.577460228370     0.427834932855
H                     5.037888883339    -1.491980590212    -1.581941393373
H                     0.910112580247    -1.949480451358    -0.616424022670
H                     2.840099169767    -7.082176411546     2.823876506818
H                     6.439769311572    -3.343776277882     0.933373527644
H                     6.169910667439    -4.591217808294    -0.283554877493
H                     6.648102230664    -2.958396968050    -0.779266725565
H                     1.073476353357    -5.162379192718     0.767443562568
H                     1.202469944924    -4.061614922184     2.130085357752
H                     0.131128588774    -3.656022556351     0.779473289889
H                     2.129159763310     1.039460667627     0.141175563171
H                     3.478276831468     2.179122664668    -0.176312935251
H                     3.816772881971     0.502128539801     0.274722057872
H                     1.136259355826     1.598437228182    -2.101687533710
H                     2.092474272716     1.360021738270    -3.583478118216
H                     2.481872847508     2.716579752400    -2.500376470614
H                     3.365083672355    -4.800045687997     2.400133500245
H                     4.953021442582    -4.920943355084     1.693280193830
