
  -OEChem-05262117483D

 35 35  0     0  0  0  0  0  0999 V2000
    1.4245   -1.5452   -0.1758 C   0  0  0  0  0  0  0  0  0  0  0  0
    0.4811   -0.8458    0.5704 C   0  0  0  0  0  0  0  0  0  0  0  0
    2.5504   -2.0802    0.4543 C   0  0  0  0  0  0  0  0  0  0  0  0
    0.6359   -0.6813    1.9537 C   0  0  0  0  0  0  0  0  0  0  0  0
    2.7469   -1.9502    1.8343 C   0  0  0  0  0  0  0  0  0  0  0  0
    1.7597   -1.2580    2.5752 C   0  0  0  0  0  0  0  0  0  0  0  0
   -1.7771   -0.4819    2.7064 C   0  0  0  0  0  0  0  0  0  0  0  0
   -0.4038    1.6006    2.2388 C   0  0  0  0  0  0  0  0  0  0  0  0
    4.8233   -1.3254    3.1234 C   0  0  0  0  0  0  0  0  0  0  0  0
    4.9278   -3.2619    1.5345 C   0  0  0  0  0  0  0  0  0  0  0  0
    1.2166   -2.0102    4.7625 C   0  0  0  0  0  0  0  0  0  0  0  0
   -0.3714    0.1447    2.7407 C   0  0  0  0  0  0  0  0  0  0  0  0
    4.0212   -2.4839    2.5008 C   0  0  0  0  0  0  0  0  0  0  0  0
    3.5913   -3.4057    3.5322 O   0  0  0  0  0  0  0  0  0  0  0  0
    1.9265   -1.0722    3.9393 O   0  0  0  0  0  0  0  0  0  0  0  0
    1.2948   -1.6671   -1.2481 H   0  0  0  0  0  0  0  0  0  0  0  0
   -0.3822   -0.4105    0.0729 H   0  0  0  0  0  0  0  0  0  0  0  0
    3.2807   -2.6050   -0.1501 H   0  0  0  0  0  0  0  0  0  0  0  0
   -2.1817   -0.4980    1.6883 H   0  0  0  0  0  0  0  0  0  0  0  0
   -2.4703    0.0930    3.3308 H   0  0  0  0  0  0  0  0  0  0  0  0
   -1.7626   -1.5139    3.0720 H   0  0  0  0  0  0  0  0  0  0  0  0
   -0.7540    1.6616    1.2027 H   0  0  0  0  0  0  0  0  0  0  0  0
    0.5927    2.0512    2.2831 H   0  0  0  0  0  0  0  0  0  0  0  0
   -1.0806    2.2028    2.8555 H   0  0  0  0  0  0  0  0  0  0  0  0
    5.7373   -1.7105    3.5945 H   0  0  0  0  0  0  0  0  0  0  0  0
    5.1237   -0.6100    2.3514 H   0  0  0  0  0  0  0  0  0  0  0  0
    4.2276   -0.8062    3.8741 H   0  0  0  0  0  0  0  0  0  0  0  0
    5.7892   -3.6478    2.0909 H   0  0  0  0  0  0  0  0  0  0  0  0
    5.3164   -2.6320    0.7287 H   0  0  0  0  0  0  0  0  0  0  0  0
    4.3995   -4.1156    1.1022 H   0  0  0  0  0  0  0  0  0  0  0  0
    1.4437   -1.7386    5.7963 H   0  0  0  0  0  0  0  0  0  0  0  0
    1.5605   -3.0267    4.5595 H   0  0  0  0  0  0  0  0  0  0  0  0
    0.1343   -1.9375    4.5997 H   0  0  0  0  0  0  0  0  0  0  0  0
   -0.0358    0.1742    3.7792 H   0  0  0  0  0  0  0  0  0  0  0  0
    4.3684   -3.6127    4.0764 H   0  0  0  0  0  0  0  0  0  0  0  0
  1  2  1  0  0  0  0
  1  3  2  0  0  0  0
  1 16  1  0  0  0  0
  2  4  2  0  0  0  0
  2 17  1  0  0  0  0
  3  5  1  0  0  0  0
  3 18  1  0  0  0  0
  4  6  1  0  0  0  0
  4 12  1  0  0  0  0
  5  6  2  0  0  0  0
  5 13  1  0  0  0  0
  6 15  1  0  0  0  0
  7 12  1  0  0  0  0
  7 19  1  0  0  0  0
  7 20  1  0  0  0  0
  7 21  1  0  0  0  0
  8 12  1  0  0  0  0
  8 22  1  0  0  0  0
  8 23  1  0  0  0  0
  8 24  1  0  0  0  0
  9 13  1  0  0  0  0
  9 25  1  0  0  0  0
  9 26  1  0  0  0  0
  9 27  1  0  0  0  0
 10 13  1  0  0  0  0
 10 28  1  0  0  0  0
 10 29  1  0  0  0  0
 10 30  1  0  0  0  0
 11 15  1  0  0  0  0
 11 31  1  0  0  0  0
 11 32  1  0  0  0  0
 11 33  1  0  0  0  0
 12 34  1  0  0  0  0
 13 14  1  0  0  0  0
 14 35  1  0  0  0  0
M  END
$$$$
