
  -OEChem-05262117483D

 61 64  0     1  0  0  0  0  0999 V2000
   -5.7092   -0.8483   -4.0125 C   0  0  0  0  0  0  0  0  0  0  0  0
   -5.5966    0.1785   -3.0693 C   0  0  0  0  0  0  0  0  0  0  0  0
   -2.9637   -0.0398    0.0096 C   0  0  0  0  0  0  0  0  0  0  0  0
   -4.8137   -0.9444   -5.0743 C   0  0  0  0  0  0  0  0  0  0  0  0
   -2.4277    1.1587    0.4963 C   0  0  0  0  0  0  0  0  0  0  0  0
   -3.6511    1.0284   -4.2682 C   0  0  0  0  0  0  0  0  0  0  0  0
   -0.7324    1.1160   -1.2386 C   0  0  0  0  0  0  0  0  0  0  0  0
   -4.5650    1.1154   -3.2002 C   0  0  0  0  0  0  0  0  0  0  0  0
   -2.3793   -0.6706   -1.0896 C   0  0  0  0  0  0  0  0  0  0  0  0
   -1.2529   -0.0908   -1.6925 C   0  0  0  0  0  0  0  0  0  0  0  0
   -3.7788   -0.0002   -5.2014 C   0  0  0  0  0  0  0  0  0  0  0  0
   -1.3396    1.7563   -0.1514 C   0  0  0  0  0  0  0  0  0  0  0  0
   -3.5870    3.7169   -0.9399 C   0  0  0  0  0  0  0  0  0  0  0  0
   -4.7723    3.3115   -0.3947 C   0  0  0  0  0  0  0  0  0  0  0  0
   -4.3605    2.1638   -2.2075 C   0  0  0  0  0  0  0  0  0  0  0  0
   -4.6001   -2.7261   -0.2823 C   0  0  0  0  0  0  0  0  0  0  0  0
   -0.8197   -0.8977   -2.8951 C   0  0  0  0  0  0  0  0  0  0  0  0
   -1.5600   -2.2400   -2.7079 C   0  0  0  0  0  0  0  0  0  0  0  0
   -2.8169   -1.9067   -1.8618 C   0  0  1  0  0  0  0  0  0  0  0  0
   -5.5384    3.6617    0.8296 C   0  0  0  0  0  0  0  0  0  0  0  0
   -4.0919   -5.5518   -1.0859 C   0  0  0  0  0  0  0  0  0  0  0  0
   -1.9662    0.8331   -6.5230 C   0  0  0  0  0  0  0  0  0  0  0  0
   -2.5527    4.6429   -0.3727 C   0  0  0  0  0  0  0  0  0  0  0  0
   -3.6114   -4.3388   -1.8899 C   0  0  0  0  0  0  0  0  0  0  0  0
   -1.6662    3.9995    0.7108 C   0  0  0  0  0  0  0  0  0  0  0  0
   -3.3152   -3.0991   -1.0200 C   0  0  2  0  0  0  0  0  0  0  0  0
   -3.3548    2.9895   -2.1053 N   0  0  0  0  0  0  0  0  0  0  0  0
   -5.6183   -2.3793   -0.8381 O   0  0  0  0  0  0  0  0  0  0  0  0
   -5.2780    2.3124   -1.2011 O   0  0  0  0  0  0  0  0  0  0  0  0
   -4.5779   -2.8197    1.0816 O   0  0  0  0  0  0  0  0  0  0  0  0
   -2.9337   -0.1814   -6.2663 O   0  0  0  0  0  0  0  0  0  0  0  0
   -0.7997    2.9733    0.2165 O   0  0  0  0  0  0  0  0  0  0  0  0
   -6.4909   -1.5933   -3.8980 H   0  0  0  0  0  0  0  0  0  0  0  0
   -6.2726    0.2225   -2.2235 H   0  0  0  0  0  0  0  0  0  0  0  0
   -3.8506   -0.4377    0.4912 H   0  0  0  0  0  0  0  0  0  0  0  0
   -4.8882   -1.7395   -5.8104 H   0  0  0  0  0  0  0  0  0  0  0  0
   -2.8942    1.6363    1.3505 H   0  0  0  0  0  0  0  0  0  0  0  0
   -2.8560    1.7619   -4.3194 H   0  0  0  0  0  0  0  0  0  0  0  0
    0.1046    1.6031   -1.7315 H   0  0  0  0  0  0  0  0  0  0  0  0
   -1.1557   -0.4024   -3.8132 H   0  0  0  0  0  0  0  0  0  0  0  0
    0.2663   -1.0167   -2.9680 H   0  0  0  0  0  0  0  0  0  0  0  0
   -1.8102   -2.7152   -3.6593 H   0  0  0  0  0  0  0  0  0  0  0  0
   -0.9184   -2.9304   -2.1457 H   0  0  0  0  0  0  0  0  0  0  0  0
   -3.6378   -1.6262   -2.5300 H   0  0  0  0  0  0  0  0  0  0  0  0
   -6.5712    3.9376    0.5906 H   0  0  0  0  0  0  0  0  0  0  0  0
   -5.5746    2.8201    1.5320 H   0  0  0  0  0  0  0  0  0  0  0  0
   -5.0659    4.5080    1.3342 H   0  0  0  0  0  0  0  0  0  0  0  0
   -3.3537   -5.8458   -0.3299 H   0  0  0  0  0  0  0  0  0  0  0  0
   -4.2516   -6.4130   -1.7425 H   0  0  0  0  0  0  0  0  0  0  0  0
   -5.0375   -5.3497   -0.5727 H   0  0  0  0  0  0  0  0  0  0  0  0
   -1.4559    0.5338   -7.4396 H   0  0  0  0  0  0  0  0  0  0  0  0
   -1.2337    0.9087   -5.7103 H   0  0  0  0  0  0  0  0  0  0  0  0
   -2.4441    1.8091   -6.6703 H   0  0  0  0  0  0  0  0  0  0  0  0
   -1.9145    5.0020   -1.1849 H   0  0  0  0  0  0  0  0  0  0  0  0
   -3.0306    5.5192    0.0828 H   0  0  0  0  0  0  0  0  0  0  0  0
   -4.3640   -4.0591   -2.6346 H   0  0  0  0  0  0  0  0  0  0  0  0
   -2.7008   -4.6022   -2.4359 H   0  0  0  0  0  0  0  0  0  0  0  0
   -0.9863    4.7548    1.1142 H   0  0  0  0  0  0  0  0  0  0  0  0
   -2.2813    3.6323    1.5404 H   0  0  0  0  0  0  0  0  0  0  0  0
   -2.5287   -3.3602   -0.2967 H   0  0  0  0  0  0  0  0  0  0  0  0
   -3.6848   -3.0718    1.3700 H   0  0  0  0  0  0  0  0  0  0  0  0
  1  2  1  0  0  0  0
  1  4  2  0  0  0  0
  1 33  1  0  0  0  0
  2  8  2  0  0  0  0
  2 34  1  0  0  0  0
  3  5  2  0  0  0  0
  3  9  1  0  0  0  0
  3 35  1  0  0  0  0
  4 11  1  0  0  0  0
  4 36  1  0  0  0  0
  5 12  1  0  0  0  0
  5 37  1  0  0  0  0
  6  8  1  0  0  0  0
  6 11  2  0  0  0  0
  6 38  1  0  0  0  0
  7 10  1  0  0  0  0
  7 12  2  0  0  0  0
  7 39  1  0  0  0  0
  8 15  1  0  0  0  0
  9 10  2  0  0  0  0
  9 19  1  0  0  0  0
 10 17  1  0  0  0  0
 11 31  1  0  0  0  0
 12 32  1  0  0  0  0
 13 14  2  0  0  0  0
 13 23  1  0  0  0  0
 13 27  1  0  0  0  0
 14 20  1  0  0  0  0
 14 29  1  0  0  0  0
 15 27  2  0  0  0  0
 15 29  1  0  0  0  0
 16 26  1  0  0  0  0
 16 28  2  0  0  0  0
 16 30  1  0  0  0  0
 17 18  1  0  0  0  0
 17 40  1  0  0  0  0
 17 41  1  0  0  0  0
 18 19  1  0  0  0  0
 18 42  1  0  0  0  0
 18 43  1  0  0  0  0
 19 26  1  0  0  0  0
 19 44  1  0  0  0  0
 20 45  1  0  0  0  0
 20 46  1  0  0  0  0
 20 47  1  0  0  0  0
 21 24  1  0  0  0  0
 21 48  1  0  0  0  0
 21 49  1  0  0  0  0
 21 50  1  0  0  0  0
 22 31  1  0  0  0  0
 22 51  1  0  0  0  0
 22 52  1  0  0  0  0
 22 53  1  0  0  0  0
 23 25  1  0  0  0  0
 23 54  1  0  0  0  0
 23 55  1  0  0  0  0
 24 26  1  0  0  0  0
 24 56  1  0  0  0  0
 24 57  1  0  0  0  0
 25 32  1  0  0  0  0
 25 58  1  0  0  0  0
 25 59  1  0  0  0  0
 26 60  1  0  0  0  0
 30 61  1  0  0  0  0
M  END
$$$$
