58
0 1 C25FH25O6S
C                     0.457441032515    -6.847763443427     2.317889862976
C                     0.468069599125    -7.841677902617     1.337108174545
C                    -4.696950891680   -11.066232131883     2.076021385929
C                    -3.356141191340   -12.375834161860     0.502776056911
C                    -3.559679045222   -10.843771366624     2.852446408706
C                    -2.220559071216   -12.143828632543     1.280514661570
C                     1.562118489146    -2.734105688859     3.635186081970
C                    -0.821205231326    -2.654421062621     3.252539543798
C                    -0.366585136686    -8.426469341499     3.923358094128
C                     0.042779230763    -7.121628678727     3.626772418326
C                     1.449785163623    -4.033941335363     4.143908831288
C                    -0.957205208539    -3.952316062832     3.757344413217
C                     0.181167802777    -4.643692433407     4.221673930696
C                     0.066689113466    -9.145653127811     1.641850444994
C                     0.431169717677    -2.038881617868     3.204408542816
C                    -4.567896174854   -11.827151600915     0.915312164392
C                    -2.335315954279   -11.377564378431     2.441607949344
C                    -0.356218052411    -9.427476495137     2.952154576711
C                     0.684326280183     1.550158666135     2.491522489196
C                     2.702069808535    -4.765968834673     4.576932563656
C                    -2.323671467968    -4.600976793869     3.775399071795
C                     1.572874396961     0.375808642550     4.543124437103
C                    -0.930834112046     0.472244897278     4.109902310907
C                     0.043177309612    -6.063791866784     4.725435924127
C                     0.466763827899     0.372117620922     3.472793878219
O                     0.894223812242     1.437947442962     1.312917859671
O                    -1.323796250842   -10.963936160316     4.846393631660
O                     0.150089902541   -12.055130393290     3.063069495638
O                     0.048413920286   -10.146624027519     0.712220099976
O                     0.625200596046     2.793898236826     3.060120470419
O                     0.566381342556    -0.786542330117     2.629504176853
F                    -5.670342413985   -12.046477673840     0.159956369300
S                    -0.878232944786   -11.081555733335     3.447643847556
H                     0.765636882778    -5.841473778284     2.050408796175
H                     0.790174830037    -7.601328238249     0.325040132390
H                    -5.668346632719   -10.673727890127     2.359608564400
H                    -3.314328174662   -12.970767911706    -0.404194396061
H                    -3.621415255791   -10.276305258412     3.775677381965
H                    -1.255270268026   -12.551872390637     1.002637506290
H                     2.535946413314    -2.262036224410     3.544563410413
H                    -1.685415980175    -2.121435432359     2.867199493624
H                    -0.703197623242    -8.689580870361     4.922592371816
H                     2.708331324339    -4.952677223390     5.657149428153
H                     2.796239703105    -5.737874908923     4.081156092464
H                     3.595038179596    -4.182803896033     4.338960656541
H                    -2.320024389216    -5.560868238224     3.248491094715
H                    -2.663170293410    -4.796902015526     4.799455475487
H                    -3.067575905263    -3.958311264913     3.298287591007
H                     1.454527649785    -0.486177006087     5.203917709302
H                     2.559166084889     0.327528154298     4.074549473742
H                     1.532878855288     1.273861380001     5.168144033376
H                    -1.105518520306    -0.388541186000     4.759692665952
H                    -1.703274176421     0.492693045546     3.336838478895
H                    -1.036673697637     1.371277432793     4.725907304603
H                    -0.879960708379    -6.168766628643     5.303655310143
H                     0.852814197935    -6.294669401958     5.424204593413
H                     0.353259158037    -9.795613994338    -0.139803226743
H                     0.449122070424     2.728012954126     4.012865323626
