34
0 1 C15H11N3O4S
C                     2.423013662306     7.637080487789    -3.810300700720
C                     1.987892927654     6.576971658784    -3.041648116394
C                     2.261397761522     5.594046802649     0.581017870901
C                     3.518809450967     2.812796319209    -0.455045621911
C                     1.743537883936     1.953093191801     0.974156627884
C                     2.972469843290     6.696237073472     1.090323022073
C                     4.465438153349     2.152683701197     0.321952288114
C                     2.689242251318     1.315526618651     1.773672038951
C                     3.184901668511     8.669376095984    -3.206587260644
C                     2.307326813796     6.548338911810    -1.659148925213
C                     3.062289451387     7.642287988425    -1.155400933810
C                     2.156456110280     2.729066112028    -0.118873442545
C                     1.940703020715     5.487640293637    -0.769780583759
C                     3.391966784841     7.704245495613     0.236778533128
C                     4.041301592393     1.419908998374     1.435470867157
N                     3.495656154089     8.679671243909    -1.922278382599
N                     1.146021299502     3.270422796585    -0.973464141294
N                     1.116099857851     4.475087117691    -1.329031951332
O                     6.575524242694     1.157565506732     2.182125687129
O                     4.717623003619     0.430728352132     3.784643877042
O                     4.093907098906     8.762869442781     0.687974718921
O                     5.267830251110    -0.925192574970     1.774894020258
S                     5.253188092319     0.587176726327     2.442734583500
H                     2.189199960919     7.694203484898    -4.869255875780
H                     1.399064215911     5.771113603755    -3.467637284431
H                     1.937359943687     4.826907098927     1.274645001490
H                     3.828996129398     3.398902609998    -1.314338483519
H                     0.683420048335     1.870783851889     1.195429056924
H                     3.199974477008     6.765354856330     2.149367157114
H                     5.523071602490     2.223081770107     0.087886079238
H                     2.388717099895     0.744075483245     2.645998281253
H                     3.540926931080     9.507875896909    -3.802843609552
H                     4.254806350868     9.328587832128    -0.100026796187
H                     6.120884510287    -1.032567917495     1.311556133246
