
  -OEChem-05262117483D

 31 33  0     0  0  0  0  0  0999 V2000
   -0.2038   -1.7511   -5.0228 C   0  0  0  0  0  0  0  0  0  0  0  0
   -0.2101   -0.4936   -4.4037 C   0  0  0  0  0  0  0  0  0  0  0  0
    0.0558   -2.9145   -4.2870 C   0  0  0  0  0  0  0  0  0  0  0  0
   -1.5879   -5.1654   -0.1499 C   0  0  0  0  0  0  0  0  0  0  0  0
   -0.4389   -5.8925    1.8495 C   0  0  0  0  0  0  0  0  0  0  0  0
    0.0394   -0.3706   -3.0293 C   0  0  0  0  0  0  0  0  0  0  0  0
   -2.6113   -4.6356    0.6277 C   0  0  0  0  0  0  0  0  0  0  0  0
   -1.4467   -5.3461    2.6417 C   0  0  0  0  0  0  0  0  0  0  0  0
    0.3168   -2.7923   -2.9204 C   0  0  0  0  0  0  0  0  0  0  0  0
   -0.4782   -5.7909    0.4487 C   0  0  0  0  0  0  0  0  0  0  0  0
    0.2982   -1.5337   -2.3227 C   0  0  0  0  0  0  0  0  0  0  0  0
   -2.5276   -4.7177    2.0209 C   0  0  0  0  0  0  0  0  0  0  0  0
    0.6212   -3.8331   -1.8942 C   0  0  0  0  0  0  0  0  0  0  0  0
    0.6338   -6.3899   -0.3015 C   0  0  0  0  0  0  0  0  0  0  0  0
    0.8223   -3.4436   -0.6699 N   0  0  0  0  0  0  0  0  0  0  0  0
    1.1217   -6.1952   -1.4805 N   0  0  0  0  0  0  0  0  0  0  0  0
    0.6128   -5.1497   -2.2668 N   0  0  0  0  0  0  0  0  0  0  0  0
    1.9006   -1.1382   -0.1906 O   0  0  0  0  0  0  0  0  0  0  0  0
   -0.5766   -1.4610    0.2131 O   0  0  0  0  0  0  0  0  0  0  0  0
    0.6298   -1.7585   -0.5591 S   0  0  0  0  0  0  0  0  0  0  0  0
   -3.8033   -4.0275    3.0006 Cl  0  0  0  0  0  0  0  0  0  0  0  0
   -0.4063   -1.8254   -6.0873 H   0  0  0  0  0  0  0  0  0  0  0  0
   -0.4153    0.3948   -4.9942 H   0  0  0  0  0  0  0  0  0  0  0  0
    0.0415   -3.8808   -4.7845 H   0  0  0  0  0  0  0  0  0  0  0  0
   -1.6607   -5.1002   -1.2291 H   0  0  0  0  0  0  0  0  0  0  0  0
    0.4040   -6.3844    2.3286 H   0  0  0  0  0  0  0  0  0  0  0  0
    0.0286    0.5973   -2.5372 H   0  0  0  0  0  0  0  0  0  0  0  0
   -3.4610   -4.1457    0.1639 H   0  0  0  0  0  0  0  0  0  0  0  0
   -1.3976   -5.4061    3.7241 H   0  0  0  0  0  0  0  0  0  0  0  0
    1.1632   -7.1880    0.2210 H   0  0  0  0  0  0  0  0  0  0  0  0
    0.8525   -5.3101   -3.2386 H   0  0  0  0  0  0  0  0  0  0  0  0
  1  2  1  0  0  0  0
  1  3  2  0  0  0  0
  1 22  1  0  0  0  0
  2  6  2  0  0  0  0
  2 23  1  0  0  0  0
  3  9  1  0  0  0  0
  3 24  1  0  0  0  0
  4  7  2  0  0  0  0
  4 10  1  0  0  0  0
  4 25  1  0  0  0  0
  5  8  1  0  0  0  0
  5 10  2  0  0  0  0
  5 26  1  0  0  0  0
  6 11  1  0  0  0  0
  6 27  1  0  0  0  0
  7 12  1  0  0  0  0
  7 28  1  0  0  0  0
  8 12  2  0  0  0  0
  8 29  1  0  0  0  0
  9 11  2  0  0  0  0
  9 13  1  0  0  0  0
 10 14  1  0  0  0  0
 11 20  1  0  0  0  0
 12 21  1  0  0  0  0
 13 15  2  0  0  0  0
 13 17  1  0  0  0  0
 14 16  2  0  0  0  0
 14 30  1  0  0  0  0
 15 20  1  0  0  0  0
 16 17  1  0  0  0  0
 17 31  1  0  0  0  0
 18 20  2  0  0  0  0
 19 20  2  0  0  0  0
M  END
$$$$
