31
0 1 C14ClH10N3O2S
C                    -0.203790313745    -1.751130031712    -5.022767316455
C                    -0.210105969670    -0.493634054921    -4.403732418095
C                     0.055769171300    -2.914497786639    -4.287007498527
C                    -1.587928816549    -5.165442033371    -0.149915305813
C                    -0.438879459212    -5.892521148959     1.849485617474
C                     0.039364984692    -0.370597474716    -3.029333226058
C                    -2.611276927129    -4.635623819763     0.627736397364
C                    -1.446717941383    -5.346056359121     2.641731573029
C                     0.316775977183    -2.792282034372    -2.920403393726
C                    -0.478249201207    -5.790872927340     0.448726087117
C                     0.298205063902    -1.533733090184    -2.322724177260
C                    -2.527560542056    -4.717673201369     2.020903864614
C                     0.621157227064    -3.833097490910    -1.894191794132
C                     0.633821384943    -6.389898481757    -0.301461181240
N                     0.822332601039    -3.443576882562    -0.669907106086
N                     1.121687789275    -6.195214074825    -1.480530216685
N                     0.612839053447    -5.149734270432    -2.266847360732
O                     1.900605400759    -1.138232393056    -0.190561259195
O                    -0.576566241701    -1.461035471122     0.213114421489
S                     0.629821995879    -1.758515969712    -0.559062488351
Cl                   -3.803343020544    -4.027509800213     3.000575450385
H                    -0.406319074312    -1.825445255547    -6.087291234974
H                    -0.415329988524     0.394773057296    -4.994220428483
H                     0.041452498828    -3.880838435370    -4.784547913158
H                    -1.660685163698    -5.100247596812    -1.229107095843
H                     0.404029435649    -6.384418936409     2.328648591305
H                     0.028592862887     0.597277719133    -2.537195446159
H                    -3.460973906161    -4.145723882662     0.163929146042
H                    -1.397575058322    -5.406128360280     3.724058399359
H                     1.163188607274    -7.187973170826     0.220982619849
H                     0.852547841878    -5.310077574108    -3.238558941189
