34
0 1 C15H11N3O4S
C                     4.456706967503     4.855828665530    -3.376987619544
C                     3.202485941466     4.910892274272    -2.804478193218
C                     1.791766914997     6.132572299170     0.463957140767
C                    -1.836394535298     6.823030441449     0.119159462827
C                    -0.202672696768     7.955260017564    -1.288578644913
C                     2.969218366836     6.558860648125     1.105393465148
C                    -2.251154695218     8.050925155260     0.631686218399
C                    -0.629609557687     9.184704268083    -0.799205466683
C                     5.570926722225     5.367638534151    -2.664785268172
C                     3.057571773053     5.473044390226    -1.509433034540
C                     4.242901863918     5.941579808174    -0.880357649496
C                    -0.792815403151     6.769411010233    -0.815659549410
C                     1.805859983638     5.614752379755    -0.828571224637
C                     4.183915829647     6.488389589803     0.441778815858
C                    -1.644635726908     9.219204362632     0.163829676602
N                     5.475272744876     5.891865625397    -1.455618310475
N                    -0.485431257811     5.500890515276    -1.399478090699
N                     0.682096105163     5.044314047196    -1.483768574836
O                    -2.951444928904    10.582815266501     2.024466402015
O                    -1.084386548079    11.739539868310     0.708794847018
O                     5.327341335010     6.907879080540     1.019161980170
O                    -3.274588183248    11.274651470905    -0.351402381040
S                    -2.185499541104    10.795867631378     0.796193363541
H                     4.604020885774     4.425098911078    -4.362936204844
H                     2.327186527590     4.525578344284    -3.317281708470
H                     0.858468937983     6.189633848220     1.012058474630
H                    -2.302457446814     5.898385199760     0.446930805804
H                     0.589012886579     7.907348413453    -2.029506269894
H                     2.937145306522     6.947039734035     2.118497847951
H                    -3.028658371653     8.106140367980     1.387034541508
H                    -0.174130079257    10.108196273877    -1.142439552968
H                     6.565035950378     5.337405968051    -3.107706667588
H                     6.034400697740     6.742634802127     0.356101723384
H                    -4.169655800303    11.136146897954     0.013977348169
