21
0 1 BrC9H7N2O2
C                     0.962614420944    -0.027363446641     1.925406984104
C                     0.817989061577    -0.390389697248     0.595575260795
C                     4.112839752436    -1.456906528893     2.933153691071
C                     3.109065451787    -1.240929163443     1.932994057070
C                     2.936851623753    -1.638302047208     0.581587154453
C                     2.121643594798    -0.462011102158     2.586015890962
C                     1.786223302164    -1.185995499457    -0.065570083586
C                     4.017855549391    -2.485762141253    -0.011390597669
C                     4.557128286467    -4.246502195156    -1.483166175374
N                     3.779632124348    -0.877376302134     4.077219918909
N                     2.574988499363    -0.279276918962     3.865026715567
O                     5.193776832409    -2.371599926373     0.289963282308
O                     3.552674040728    -3.418288472058    -0.860770721263
Br                    1.437112263737    -1.505016950174    -1.927210240118
H                     0.207115097118     0.576740552675     2.419861586500
H                    -0.051779418553    -0.059155392146     0.038819344778
H                     5.048830601148    -1.988631960671     2.839609257505
H                     4.007544351521    -4.914208151591    -2.145794231964
H                     5.103659318709    -4.813630735933    -0.726207883519
H                     5.258617672755    -3.629577793099    -2.049147121286
H                     2.141726870088     0.232748774584     4.620487298330
