37
0 1 C17H16N2OS
C                    -0.721224637602    -2.028511972374    -1.750718363593
C                     2.096155869698     0.080481434823    -4.512004218566
C                     1.498486178421     0.590222622725    -3.370709270613
C                     2.928612419252    -1.042033125050    -4.403831792284
C                    -0.274520896447    -2.207204183617    -0.411585885130
C                     1.680096235761    -0.019428683080    -2.108939383496
C                    -0.388534872916    -3.459333462100     0.293756376928
C                     3.172958244702    -1.653611588422    -3.174979426475
C                     2.547086149234    -1.134347629067    -2.023508712975
C                     0.070663292527    -3.380637465893     1.580385961631
C                     0.275371009052    -1.185422109491     0.360295865537
C                     0.965182819578     0.620774388519    -0.993709963948
C                    -0.922920515573    -4.737653699861    -0.299857112820
C                     0.118773168755    -4.524077163789     2.555995149207
C                    -1.205105702525    -5.781446921232     0.792554206572
C                    -0.055321550881    -5.857711110026     1.807281919846
C                     4.088076497396    -2.845211577258    -3.044544324435
N                    -1.106845151698    -1.909236762616    -2.845687852623
N                     0.440852660487     0.154417995322     0.091311988375
O                     2.896165616948    -1.751535190952    -0.856107818062
S                     0.611766892792    -1.765896721776     1.981457333714
H                     1.921880436045     0.544821398260    -5.477899427089
H                     0.845477870299     1.456772938107    -3.439122840314
H                     3.405384999078    -1.446750406405    -5.293588761481
H                     0.845826587497     1.700472421220    -1.113300214067
H                    -1.830085478213    -4.528816882355    -0.877385763822
H                    -0.191212004286    -5.130615727531    -1.018230506568
H                     1.064852310021    -4.520235342532     3.109135387847
H                    -0.678283007645    -4.407724779686     3.302815379391
H                    -2.131141002786    -5.515831167056     1.318088878830
H                    -1.370740942353    -6.760768842578     0.331698658105
H                     0.876709851063    -6.100091528981     1.281771330442
H                    -0.234899017387    -6.660432393054     2.530136312129
H                     4.944735390022    -2.618098958018    -2.401192489679
H                     3.567077297175    -3.691975893231    -2.585982108289
H                     4.461993050954    -3.154711103206    -4.023799199028
H                     2.307773910330    -1.489142729250    -0.128901562358
