31
0 1 C14ClH10N3O2S
C                     3.794209374262    -2.978450291910    -0.315091727832
C                     3.780639302041    -1.584260724170    -0.183957053521
C                     2.671109914817    -3.677236614547    -0.776495424513
C                    -1.498301294487    -6.714032006583    -3.691504269334
C                    -1.653950309462    -8.520975983278    -2.091350787164
C                     2.633644803315    -0.848936191540    -0.515089200962
C                    -2.635191471882    -7.190441306254    -4.344436582317
C                    -2.797276117839    -8.999377153597    -2.728153159628
C                     1.523872703671    -2.947762363528    -1.107148846499
C                    -0.997157669894    -7.362950764428    -2.546116977048
C                     1.534488326607    -1.557338934120    -0.968968796765
C                    -3.284463704229    -8.324868481240    -3.851413377818
C                     0.188798606948    -3.374377235990    -1.621746754048
C                     0.218474632085    -6.918763890631    -1.834293733522
N                    -0.707467400693    -2.454202239955    -1.846617048359
N                     0.626120814048    -5.725871502876    -1.558712990374
N                    -0.152986555091    -4.665111807069    -1.912179739339
O                    -0.786516702064    -0.356093362384    -0.336329053950
O                     0.059029993022    -0.139600303158    -2.710361555042
S                    -0.072701053422    -0.920734167010    -1.480771891917
Cl                   -4.718018648253    -8.918649476742    -4.659545349656
H                     4.692238806749    -3.531080181465    -0.053542054924
H                     4.665229734210    -1.066793056857     0.176795624244
H                     2.682307272845    -4.754453832734    -0.872451530298
H                    -0.978227286535    -5.857785427673    -4.110884897735
H                    -1.270881995886    -9.048062912216    -1.221039847476
H                     2.606253326157     0.232441005118    -0.420849026367
H                    -3.010200061991    -6.690330254569    -5.231564001162
H                    -3.304932649162    -9.886386232541    -2.362966707103
H                     0.875228340085    -7.699370651647    -1.452940403909
H                    -1.120849524947    -4.799171667166    -2.206368665719
