
  -OEChem-05262117483D

 18 19  0     0  0  0  0  0  0999 V2000
   -0.1745    0.4646    0.9628 C   0  0  0  0  0  0  0  0  0  0  0  0
    0.7128    1.9045    2.7342 C   0  0  0  0  0  0  0  0  0  0  0  0
   -1.3904    0.2827    1.6693 C   0  0  0  0  0  0  0  0  0  0  0  0
   -0.4772    1.7144    3.4045 C   0  0  0  0  0  0  0  0  0  0  0  0
   -1.5160    0.9245    2.8981 C   0  0  0  0  0  0  0  0  0  0  0  0
    0.8356    1.2521    1.4893 C   0  0  0  0  0  0  0  0  0  0  0  0
   -2.4287   -0.5745    1.0448 C   0  0  0  0  0  0  0  0  0  0  0  0
   -2.1643    1.7492    4.8878 C   0  0  0  0  0  0  0  0  0  0  0  0
   -2.3023   -1.1293   -0.0327 O   0  0  0  0  0  0  0  0  0  0  0  0
   -0.8385    2.2365    4.6225 O   0  0  0  0  0  0  0  0  0  0  0  0
   -2.5622    0.9237    3.7783 O   0  0  0  0  0  0  0  0  0  0  0  0
   -3.5544   -0.6891    1.7933 O   0  0  0  0  0  0  0  0  0  0  0  0
    2.4659    1.4761    0.5070 Br  0  0  0  0  0  0  0  0  0  0  0  0
   -0.0649   -0.0301    0.0049 H   0  0  0  0  0  0  0  0  0  0  0  0
    1.5058    2.5203    3.1432 H   0  0  0  0  0  0  0  0  0  0  0  0
   -2.1545    1.1446    5.8003 H   0  0  0  0  0  0  0  0  0  0  0  0
   -2.8536    2.5955    4.9714 H   0  0  0  0  0  0  0  0  0  0  0  0
   -4.1537   -1.2687    1.2843 H   0  0  0  0  0  0  0  0  0  0  0  0
  1  3  1  0  0  0  0
  1  6  2  0  0  0  0
  1 14  1  0  0  0  0
  2  4  2  0  0  0  0
  2  6  1  0  0  0  0
  2 15  1  0  0  0  0
  3  5  2  0  0  0  0
  3  7  1  0  0  0  0
  4  5  1  0  0  0  0
  4 10  1  0  0  0  0
  5 11  1  0  0  0  0
  6 13  1  0  0  0  0
  7  9  2  0  0  0  0
  7 12  1  0  0  0  0
  8 10  1  0  0  0  0
  8 11  1  0  0  0  0
  8 16  1  0  0  0  0
  8 17  1  0  0  0  0
 12 18  1  0  0  0  0
M  END
$$$$
