22
0 1 C9ClH8N3O
C                    -1.704651651159    -0.657359483612     0.843254945006
C                    -0.892465832630     0.405363009846     0.457995546731
C                    -1.783851011312     1.821780295897     2.256403492843
C                    -4.056293071644    -0.725016605074     3.603908544340
C                    -2.626245223126     0.762534311500     2.648248252792
C                    -3.600907352832     0.579960680670     3.710565878059
C                    -2.558136872256    -0.465990276653     1.933952963218
C                    -0.941429880253     1.619993992123     1.170916293208
C                    -4.048108266560     1.588887733281     4.671930567643
N                    -4.626314719485     1.411834283316     5.818219985362
N                    -3.445818434892    -1.342708811514     2.538765202729
N                    -3.776611231572     2.930051887100     4.332642857449
O                    -4.752444075897     0.035367908132     6.159284296914
Cl                    0.123320637240     2.929318135272     0.661065597375
H                    -1.665850393658    -1.602840252455     0.308505328971
H                    -0.215250794557     0.303539392440    -0.383422137335
H                    -1.775934996500     2.758137742705     2.801040435803
H                    -4.778156775396    -1.242903740578     4.215534337321
H                    -3.593086695753    -2.304943346722     2.268571488877
H                    -4.190850284234     3.559173961449     5.016554125113
H                    -4.093418297917     3.164014435452     3.395066450936
H                    -5.101443500266     0.091804514772     7.062569120574
