29   
torsion grid (-165,)
C       -2.6816674447    0.7496748139    0.5799515970
C       -3.6442823913    1.4140820834    1.2982574876
C       -1.3663272260    0.6859380342    1.1105897340
C       -3.2383983132    1.9921383534    2.5225122932
C       -0.1442296617    0.5648207949   -1.0418386065
C       -0.4660208843   -0.8906342944   -0.7880107036
C       -0.2097516848    0.0323187854    0.3968850426
C        0.5855891143   -3.2184752627   -0.6825781218
C       -3.7573816237    3.2393208516    4.4785580056
C        0.6229782293   -1.8178218397   -1.3084835477
N       -1.0691299640    1.2420827737    2.2842180424
N       -2.0028394522    1.9062090374    2.9904059320
N        1.0344498827   -0.1260086031    1.1072309202
O       -4.1796137464    2.6567526258    3.2321001181
H       -2.9292563899    0.2853233466   -0.3692291886
H       -4.6740895964    1.5047519166    0.9667404850
H        0.8432562177    0.7701371570   -1.4434993894
H       -0.9156679226    1.2657592497   -1.3443066174
H       -1.4877696696   -1.2327619634   -0.9403323944
H        0.7446726650   -3.1646009569    0.3998575294
H        1.3651477423   -3.8634240130   -1.1027389269
H       -0.3800074517   -3.7087207719   -0.8542523179
H       -4.6494005242    3.7183513705    4.8835291751
H       -2.9653137166    3.9744411373    4.3139198772
H       -3.3889996481    2.4689874760    5.1610172385
H        0.5022379643   -1.8917878595   -2.3965334130
H        1.5959729220   -1.3613736610   -1.1162295752
H        1.2407591668    0.7488082615    1.5893143814
H        0.8982522873   -0.8093295204    1.8525048602
29   
torsion grid (-150,)
C       -2.5765658372    0.9966984312    0.4244132183
C       -3.5504769910    1.5675095430    1.2051139665
C       -1.2832422483    0.8128064638    0.9815141224
C       -3.1793353102    1.9302888770    2.5196400427
C       -0.0784470120    0.5770793550   -1.2596905763
C       -0.4488011475   -0.8286315027   -0.8613267139
C       -0.1363006652    0.2073684188    0.2197115528
C        0.3647276177   -3.1676559042   -0.2909891818
C       -3.7452949431    2.8617103982    4.6323757645
C        0.5389922805   -1.9334181795   -1.1850260903
N       -1.0162382525    1.1761183285    2.2358918876
N       -1.9637166497    1.7387536973    3.0085642636
N        1.1338628642    0.0869431770    0.8943840329
O       -4.1322737957    2.4974222387    3.2947764080
H       -2.7994882475    0.6957403201   -0.5943166433
H       -4.5632883575    1.7428878590    0.8557350362
H        0.9164351349    0.7174065735   -1.6717307035
H       -0.8325028202    1.2565301897   -1.6456212780
H       -1.4964749205   -1.1107693495   -0.9508158253
H        0.5343738090   -2.9121843403    0.7603777527
H        1.0729983515   -3.9580103469   -0.5622160968
H       -0.6465075045   -3.5830561579   -0.3746874593
H       -4.6417173829    3.2936962953    5.0784420423
H       -2.9321518898    3.5920094269    4.6149429715
H       -3.4194315475    1.9825780498    5.1943015905
H        0.4069383621   -2.2133881410   -2.2383108362
H        1.5536786440   -1.5433454201   -1.0764293104
H        1.4343201808    1.0176838288    1.1837293328
H        0.9890988386   -0.4175461012    1.7689015017
29   
torsion grid (-135,)
C       -2.5166079110    1.1687729143    0.2640330263
C       -3.5171413123    1.6364901041    1.0790097689
C       -1.2480651816    0.8936873193    0.8388787143
C       -3.1965106483    1.8016230966    2.4456393449
C       -0.0133768161    0.5696581015   -1.4547691863
C       -0.4009379687   -0.7880763417   -0.9353544954
C       -0.0947006912    0.3506559460    0.0474218936
C        0.1768244249   -3.0239789286    0.0886993406
C       -3.8408551341    2.4236834362    4.6476013523
C        0.4974304428   -2.0038915390   -1.0107443630
N       -1.0255180712    1.0802870226    2.1396760215
N       -2.0012848588    1.5321455268    2.9481852130
N        1.1891623573    0.2857994096    0.7120435136
O       -4.1771602469    2.2591536320    3.2578085342
H       -2.6966545432    1.0186337160   -0.7960220782
H       -4.5127699182    1.8767755934    0.7190218835
H        0.9940207673    0.6892673167   -1.8426406316
H       -0.7638357584    1.1862847243   -1.9413676928
H       -1.4624230242   -1.0224844706   -1.0111946001
H        0.3274239310   -2.5861520166    1.0809539093
H        0.8199148283   -3.9069776640    0.0091424354
H       -0.8643179187   -3.3624000226    0.0285287632
H       -4.7524105110    2.7946548250    5.1172683396
H       -3.0253099698    3.1417806786    4.7663185732
H       -3.5396715470    1.4700124471    5.0887808796
H        0.3808438490   -2.4697898328   -1.9982935348
H        1.5390215991   -1.6837158482   -0.9248636196
H        1.5321750284    1.2372846289    0.8448999376
H        1.0431676430   -0.0705182110    1.6562977186
29   
torsion grid (-120,)
C       -2.4497511266    1.3107427334    0.1811770281
C       -3.4507350726    1.6999664882    1.0359999288
C       -1.1854811728    0.9718405084    0.7291625592
C       -3.1330156939    1.7221440340    2.4133648166
C        0.0533501147    0.5816476118   -1.6223187720
C       -0.3459321830   -0.7316957787   -1.0085848653
C       -0.0466960295    0.4795519631   -0.1106511543
C       -0.0599922198   -2.8095277098    0.3733346806
C       -3.7817829227    2.1185405125    4.6659155137
C        0.4298146626   -2.0204728191   -0.8474782414
N       -0.9620942915    1.0314090961    2.0411666225
N       -1.9393151237    1.4007910250    2.8888033304
N        1.2556730132    0.4472467200    0.5304410630
O       -4.1147324111    2.0969859827    3.2659673285
H       -2.6205547364    1.2706351786   -0.8906663789
H       -4.4432298214    1.9841154926    0.7000074688
H        1.0683941258    0.6993445571   -1.9898603807
H       -0.6995892108    1.1297750521   -2.1826704951
H       -1.4187585308   -0.9137607343   -1.0886676564
H        0.0755515775   -2.2319327398    1.2934338915
H        0.4898050533   -3.7506068935    0.4803226156
H       -1.1258353348   -3.0525262027    0.2892149822
H       -4.6937724437    2.4421363741    5.1686286597
H       -2.9649593398    2.8188113824    4.8590419790
H       -3.4840405174    1.1241753909    5.0086622846
H        0.3176903144   -2.6291761428   -1.7545792064
H        1.4944369752   -1.7939462200   -0.7422267233
H        1.6076995064    1.4026512914    0.5936783687
H        1.1271313295    0.1493957029    1.4972807076
29   
torsion grid (-105,)
C       -2.4315637937    1.3339695724    0.0948127996
C       -3.4349145203    1.6532823696    0.9750082096
C       -1.1532230551    1.0037309352    0.6152161954
C       -3.1037864401    1.6148983033    2.3493728505
C        0.1297130012    0.5714662050   -1.7730197096
C       -0.2713994325   -0.7065637779   -1.0866572583
C       -0.0218844080    0.5637904563   -0.2603352257
C       -0.3143220096   -2.6025564528    0.5472672392
C       -3.7422410529    1.8739696743    4.6247238968
C        0.3614182137   -2.0280195641   -0.7043627642
N       -0.9161710090    1.0105411293    1.9253174545
N       -1.8961677709    1.3081774720    2.7978919611
N        1.2896054953    0.5734423505    0.3773598473
O       -4.0880558485    1.9150043666    3.2282927046
H       -2.6063733097    1.3411372334   -0.9775054175
H       -4.4378105768    1.9274054812    0.6623515041
H        1.1541964749    0.7157598766   -2.1021320795
H       -0.6221909405    1.0391084078   -2.4039211766
H       -1.3472149271   -0.8535435113   -1.2144216981
H       -0.1981590878   -1.9305018587    1.4032552976
H        0.1201161761   -3.5716492323    0.8144344160
H       -1.3888561916   -2.7504234641    0.3868222213
H       -4.6589540588    2.1414702672    5.1512547180
H       -2.9459766548    2.5888624378    4.8478485514
H       -3.4099841430    0.8730417367    4.9122810925
H        0.2681050740   -2.7366932484   -1.5377616327
H        1.4315136169   -1.8905884110   -0.5221583251
H        1.6303429337    1.5348808066    0.3978870576
H        1.1690186552    0.3135862207    1.3561814714
29   
torsion grid (-90,)
C       -2.4126007129    1.2796501794    0.0842002057
C       -3.4140610392    1.5364657488    0.9858827453
C       -1.1059538099    1.0203915739    0.5755605534
C       -3.0518270975    1.5092533936    2.3530590045
C        0.2456351138    0.5754041825   -1.8382157158
C       -0.1616185117   -0.6775912446   -1.1042736746
C        0.0204232386    0.6357349246   -0.3324147825
C       -0.5649788143   -2.4194273684    0.6512216111
C       -3.6552349060    1.7202497921    4.6426957795
C        0.2984831337   -2.0136039123   -0.5495439040
N       -0.8410219876    1.0387341465    1.8794487229
N       -1.8192345327    1.2725000441    2.7739815623
N        1.3367213906    0.6821312802    0.3121613214
O       -4.0332188857    1.7454721774    3.2542725777
H       -2.6076103401    1.2805832074   -0.9848746368
H       -4.4373358151    1.7546055799    0.6959908106
H        1.2785409751    0.7568415690   -2.1181539953
H       -0.4917493483    0.9680588269   -2.5343767079
H       -1.2336354731   -0.7923079396   -1.3030358313
H       -0.4573174032   -1.7114790725    1.4778549961
H       -0.2745182168   -3.4111365871    1.0135972277
H       -1.6274762034   -2.4588630155    0.3832267867
H       -4.5745521874    1.9305647460    5.1901897005
H       -2.8984008935    2.4807406572    4.8519042210
H       -3.2575363358    0.7399847352    4.9181313689
H        0.2300592744   -2.7791511615   -1.3332792401
H        1.3512437668   -1.9635375979   -0.2523546547
H        1.6604267038    1.6498047059    0.3109812950
H        1.2177889523    0.4447835336    1.2968077465
29   
torsion grid (-75,)
C       -2.4076186317    1.1781767627    0.0745605115
C       -3.4066216192    1.3786061340    0.9921572088
C       -1.0724761665    1.0371118520    0.5394631394
C       -3.0128269032    1.4174951420    2.3506240010
C        0.3686170113    0.5810317348   -1.8856155406
C       -0.0349146528   -0.6499932518   -1.1047056991
C        0.0519988965    0.7013840929   -0.3936388345
C       -0.7959313276   -2.2768507714    0.6574980422
C       -3.5802129536    1.6377909347    4.6486749386
C        0.2392910698   -1.9922738903   -0.4366740659
N       -0.7805453220    1.1184643267    1.8343237198
N       -1.7557419072    1.2953746803    2.7460933356
N        1.3677122894    0.8131904357    0.2674070685
O       -3.9897756435    1.5955983190    3.2695619973
H       -2.6248017754    1.1306130349   -0.9891702778
H       -4.4504371019    1.5049597905    0.7216081822
H        1.4052881251    0.8110496749   -2.1094713367
H       -0.3439478315    0.8911109289   -2.6463918143
H       -1.0925876287   -0.7524480134   -1.3908207860
H       -0.7073084688   -1.5730826276    1.4887022562
H       -0.6531296477   -3.2874201287    1.0544069072
H       -1.8188905224   -2.2110238252    0.2687733010
H       -4.5013445771    1.7864074032    5.2130606482
H       -2.8841106807    2.4627878098    4.8208580668
H       -3.0971530305    0.7008070452    4.9379594097
H        0.2021714279   -2.7834303570   -1.1962564674
H        1.2480161958   -2.0240827679   -0.0089970742
H        1.6542176012    1.7924184117    0.2446872815
H        1.2474281095    0.5999092479    1.2570982529
29   
torsion grid (-60,)
C       -2.3856971066    1.0926696728    0.0625454855
C       -3.3813954925    1.2561880443    0.9908079088
C       -1.0379743395    1.0279864494    0.5085866366
C       -2.9699823460    1.3361801349    2.3420504610
C        0.4767484979    0.5436224555   -1.9186173587
C        0.1076250909   -0.6597170190   -1.0690933388
C        0.0851467686    0.7266836066   -0.4433080178
C       -0.9363409408   -2.2163487319    0.6310303760
C       -3.5126448152    1.5633975922    4.6453762429
C        0.1998001068   -2.0253171766   -0.3786105533
N       -0.7319350090    1.1479292171    1.7965296141
N       -1.7022924539    1.2872398307    2.7197374811
N        1.3967801428    0.9569251812    0.2205089954
O       -3.9404374868    1.4764859283    3.2737949349
H       -2.6137178289    1.0145467251   -0.9971174946
H       -4.4341040064    1.3243291059    0.7340848491
H        1.5060339014    0.8318835478   -2.1062494134
H       -0.2143567698    0.7596930966   -2.7303426306
H       -0.9367143592   -0.7602982498   -1.4210410340
H       -0.8399213946   -1.5377305577    1.4814546029
H       -0.9180723858   -3.2417662569    1.0149651783
H       -1.9172066675   -2.0470912333    0.1723851822
H       -4.4317793944    1.6711344274    5.2221260120
H       -2.8600152790    2.4276918753    4.7932428981
H       -2.9749276426    0.6588595634    4.9412965055
H        0.1431803303   -2.8003467646   -1.1523964894
H        1.1624987078   -2.1716673826    0.1274865873
H        1.6051778990    1.9552820268    0.1753431147
H        1.2911055145    0.7599140737    1.2149115090
29   
torsion grid (150,)
C       -3.0002727327    0.4283369153    1.0229690981
C       -3.8375251318    1.3473048344    1.5989399823
C       -1.6402227797    0.4010245777    1.4417011815
C       -3.2704322898    2.1947321506    2.5828571125
C       -0.5151004267    0.3382964857   -0.5338229780
C       -0.5580877295   -1.1686048176   -0.5559715724
C       -0.5933276418   -0.4976645761    0.8282903521
C        1.1221678018   -2.9774526436   -1.3520668522
C       -3.5105440155    3.9634779939    4.1515629742
C        0.7390399758   -1.4897241814   -1.3293786994
N       -1.2028584449    1.1769435358    2.4285712207
N       -2.0162246400    2.0994099166    2.9844259127
N        0.6398996672   -0.6455271129    1.5672527667
O       -4.0876843048    3.1247380559    3.1361928026
H       -3.3593234110   -0.2660476385    0.2679238094
H       -4.8901405302    1.4316769068    1.3467385095
H        0.4321956420    0.8043044783   -0.7813123703
H       -1.3820126674    0.9404589892   -0.7736274690
H       -1.4574613602   -1.6581854535   -0.9286826802
H        1.3344553334   -3.3395474833   -0.3403347683
H        2.0164823401   -3.1477266058   -1.9623221310
H        0.3157324892   -3.5936319451   -1.7668316658
H       -4.3158132217    4.6310994446    4.4602807265
H       -2.6685292436    4.5345256071    3.7510576348
H       -3.1603957830    3.3646612358    4.9967099351
H        0.5669488627   -1.1331414042   -2.3496000566
H        1.5618721222   -0.9201796348   -0.8982695564
H        0.6873741513    0.0879773541    2.2754786476
H        0.6218477716   -1.5392908071    2.0558524668
29   
torsion grid (165,)
C       -2.8697935965    0.4435962614    0.9342857492
C       -3.7720766294    1.2855970538    1.5342577858
C       -1.5230933450    0.4726662438    1.3823864680
C       -3.2751514031    2.1172790059    2.5651725305
C       -0.3346483136    0.4354833398   -0.6174670453
C       -0.5229092611   -1.0714580116   -0.5826065423
C       -0.4080257863   -0.3252761722    0.7456760609
C        0.8982111922   -3.1112751188   -1.2905799047
C       -3.6434700168    3.7974581640    4.2053818596
C        0.6872803369   -1.5918820638   -1.3733916450
N       -1.1455937582    1.2426665339    2.3991523760
N       -2.0198496212    2.0853647815    2.9817785215
N        0.8157807157   -0.5041872893    1.4859781484
O       -4.1543932656    2.9678310436    3.1469772346
H       -3.1769204407   -0.2293151712    0.1389044536
H       -4.8218648086    1.3237686300    1.2600449949
H        0.6365338210    0.7829507592   -0.9532978494
H       -1.1506252807    1.1132775547   -0.8387862593
H       -1.4910932022   -1.4839890120   -0.8626522085
H        1.1003329747   -3.4196691055   -0.2590622913
H        1.7468359583   -3.4290506985   -1.9069260714
H        0.0136795884   -3.6589621753   -1.6367556195
H       -4.4941148383    4.3969023845    4.5315086536
H       -2.8368708135    4.4388872431    3.8404317269
H       -3.2637802745    3.1861401672    5.0283538671
H        0.5237771299   -1.2939785147   -2.4143732399
H        1.5868376840   -1.0903600523   -1.0143969347
H        0.9260675786    0.2890035774    2.1187572156
H        0.7239960309   -1.3312132459    2.0754453925
29   
torsion grid (180,)
C       -2.8016316541    0.5856246976    0.8133293763
C       -3.7356073877    1.3481891981    1.4694675087
C       -1.4662970253    0.5956548717    1.2931998470
C       -3.2802259603    2.0910359122    2.5828307244
C       -0.2480007905    0.5495115272   -0.7746449484
C       -0.5157591059   -0.9375847185   -0.6582184443
C       -0.3258848931   -0.1276098684    0.6155926679
C        0.7280704792   -3.1613759535   -1.0021432677
C       -3.7198468341    3.6043275426    4.3624895562
C        0.6478325076   -1.6643203090   -1.3328617021
N       -1.1249323026    1.2932026078    2.3742027819
N       -2.0293409821    2.0567827870    3.0149228671
N        0.8982182055   -0.3109937891    1.3536935020
O       -4.1911427160    2.8593875108    3.2251307366
H       -3.0815733081   -0.0120279346   -0.0487081406
H       -4.7794249426    1.3917609032    1.1741589090
H        0.7341227293    0.8248464300   -1.1456931639
H       -1.0371163611    1.2527793375   -1.0176349878
H       -1.5069068992   -1.3190221628   -0.8966246183
H        0.8901846032   -3.3139054060    0.0704968000
H        1.5543607011   -3.6434957281   -1.5363586474
H       -0.1955350559   -3.6837388853   -1.2784409652
H       -4.5929451626    4.1461311515    4.7276559986
H       -2.9288291123    4.2996835346    4.0695770461
H       -3.3324972473    2.9320934371    5.1325752894
H        0.5244708842   -1.5261892194   -2.4133905128
H        1.5822429585   -1.1826921816   -1.0399302003
H        1.0397407152    0.5106460300    1.9416660427
H        0.7778853391   -1.0932671642    1.9971957835
