
  -OEChem-05262117483D

 25 26  0     0  0  0  0  0  0999 V2000
   -2.9502    0.7792   -4.8173 C   0  0  0  0  0  0  0  0  0  0  0  0
   -4.1029    0.3877   -5.5108 C   0  0  0  0  0  0  0  0  0  0  0  0
   -3.4547   -1.9379   -5.2743 C   0  0  0  0  0  0  0  0  0  0  0  0
   -2.0388   -0.1724   -4.3457 C   0  0  0  0  0  0  0  0  0  0  0  0
   -2.3217   -1.5281   -4.5910 C   0  0  0  0  0  0  0  0  0  0  0  0
   -4.3472   -0.9634   -5.7345 C   0  0  0  0  0  0  0  0  0  0  0  0
    2.9237    1.9103   -2.8996 C   0  0  0  0  0  0  0  0  0  0  0  0
    2.2810    3.1867   -2.3423 C   0  0  0  0  0  0  0  0  0  0  0  0
    0.7298    1.4917   -2.6408 C   0  0  0  0  0  0  0  0  0  0  0  0
   -0.5835    1.4594   -3.3991 C   0  0  0  0  0  0  0  0  0  0  0  0
    1.8155    1.2423   -3.5077 O   0  0  0  0  0  0  0  0  0  0  0  0
    0.9147    2.8043   -2.1053 O   0  0  0  0  0  0  0  0  0  0  0  0
   -0.8926    0.0933   -3.6629 O   0  0  0  0  0  0  0  0  0  0  0  0
   -1.4538   -2.4597   -4.1393 F   0  0  0  0  0  0  0  0  0  0  0  0
   -5.7889   -1.4634   -6.6028 Cl  0  0  0  0  0  0  0  0  0  0  0  0
   -2.7744    1.8357   -4.6516 H   0  0  0  0  0  0  0  0  0  0  0  0
   -4.8007    1.1362   -5.8712 H   0  0  0  0  0  0  0  0  0  0  0  0
   -3.6282   -2.9960   -5.4384 H   0  0  0  0  0  0  0  0  0  0  0  0
    3.6781    2.0892   -3.6674 H   0  0  0  0  0  0  0  0  0  0  0  0
    3.3526    1.2911   -2.0995 H   0  0  0  0  0  0  0  0  0  0  0  0
    2.7327    3.5187   -1.4028 H   0  0  0  0  0  0  0  0  0  0  0  0
    2.3010    4.0073   -3.0679 H   0  0  0  0  0  0  0  0  0  0  0  0
    0.7207    0.7581   -1.8191 H   0  0  0  0  0  0  0  0  0  0  0  0
   -0.4735    2.0279   -4.3298 H   0  0  0  0  0  0  0  0  0  0  0  0
   -1.3600    1.9191   -2.7761 H   0  0  0  0  0  0  0  0  0  0  0  0
  1  2  1  0  0  0  0
  1  4  2  0  0  0  0
  1 16  1  0  0  0  0
  2  6  2  0  0  0  0
  2 17  1  0  0  0  0
  3  5  2  0  0  0  0
  3  6  1  0  0  0  0
  3 18  1  0  0  0  0
  4  5  1  0  0  0  0
  4 13  1  0  0  0  0
  5 14  1  0  0  0  0
  6 15  1  0  0  0  0
  7  8  1  0  0  0  0
  7 11  1  0  0  0  0
  7 19  1  0  0  0  0
  7 20  1  0  0  0  0
  8 12  1  0  0  0  0
  8 21  1  0  0  0  0
  8 22  1  0  0  0  0
  9 10  1  0  0  0  0
  9 11  1  0  0  0  0
  9 12  1  0  0  0  0
  9 23  1  0  0  0  0
 10 13  1  0  0  0  0
 10 24  1  0  0  0  0
 10 25  1  0  0  0  0
M  END
$$$$
