41
0 1 BrC18H17N4O
C                     2.290676215820    -5.819398732891     6.472686600042
C                     2.739301494679    -7.096268162537     6.080189078836
C                     2.373994537919    -2.122343066527    -0.801550684829
C                     1.959346986910    -4.841754726645     5.530460842556
C                     2.872737306674    -7.436857865631     4.729318433821
C                     1.651311868932    -0.958556192666    -1.066270589614
C                     0.700541195978    -2.035315656690    -3.028843213253
C                     2.275258484326    -3.258920542525    -1.622847654317
C                     2.083786336523    -5.165014029552     4.174074943314
C                     2.534514502116    -6.456267760517     3.795909123213
C                     1.439606180679    -3.191570571391    -2.753815111033
C                     0.811098872663    -0.935407875346    -2.181435333123
C                     2.124293375596    -5.191752591992     2.030248462099
C                     3.040386790762    -4.495847898563    -1.296449621453
C                     4.016273648205    -5.030506713081    -2.315271970397
C                     3.311288141547    -5.670303138453    -3.524329367244
C                     2.435008061756    -4.710870416655    -4.322080607327
C                     2.806157182547    -7.601983269676     1.548366940893
N                     1.846638183697    -4.392456752424     3.039083850634
N                     2.915632014488    -5.167619206002    -0.202900248261
N                     2.533979900839    -6.455678706905     2.400717569008
N                     1.946363825133    -4.811445128218     0.706015211425
O                     1.266444887309    -4.257556648877    -3.603968134986
Br                   -0.195115358270     0.647228788089    -2.572657902384
H                     2.203019143312    -5.592300232098     7.531883826050
H                     2.989662191727    -7.831309834072     6.840353369655
H                     3.036898719178    -2.147071088948     0.060042197899
H                     1.614839440959    -3.856485874764     5.831556055421
H                     3.227012082781    -8.420577265473     4.433125195838
H                     1.740365773481    -0.092593771998    -0.419401636736
H                     0.056378301895    -2.020326082477    -3.901270745365
H                     4.665025768146    -4.215799127014    -2.662157633441
H                     4.644858427765    -5.777007690654    -1.822712219299
H                     4.069394705615    -6.072445512293    -4.208432736820
H                     2.698084421500    -6.513204185616    -3.187078603012
H                     3.009821255777    -3.837308894824    -4.656094405145
H                     2.033666851629    -5.214642094030    -5.204847045027
H                     2.515687990951    -8.510093723821     2.082403506512
H                     2.220380595619    -7.526037312182     0.632958328663
H                     3.865301718380    -7.659199915275     1.280167674781
H                     1.518320444083    -3.889772417799     0.628595220227
