
  -OEChem-05262117483D

 41 43  0     0  0  0  0  0  0999 V2000
   -5.8249    8.6861   -4.8517 C   0  0  0  0  0  0  0  0  0  0  0  0
   -4.9190    7.6321   -4.9763 C   0  0  0  0  0  0  0  0  0  0  0  0
   -1.3570   -0.3655   -2.3405 C   0  0  0  0  0  0  0  0  0  0  0  0
   -0.7645   -1.4444   -2.9926 C   0  0  0  0  0  0  0  0  0  0  0  0
   -1.3757    2.2399   -5.0041 C   0  0  0  0  0  0  0  0  0  0  0  0
   -0.5439   -0.1236   -5.0254 C   0  0  0  0  0  0  0  0  0  0  0  0
   -5.7375    6.7563   -2.8724 C   0  0  0  0  0  0  0  0  0  0  0  0
   -1.1453    0.9752   -4.3743 C   0  0  0  0  0  0  0  0  0  0  0  0
   -1.9825    3.2971   -4.3665 C   0  0  0  0  0  0  0  0  0  0  0  0
   -6.6944    8.8028   -3.7596 C   0  0  0  0  0  0  0  0  0  0  0  0
   -6.6431    7.8133   -2.7531 C   0  0  0  0  0  0  0  0  0  0  0  0
   -4.8726    6.6553   -3.9743 C   0  0  0  0  0  0  0  0  0  0  0  0
   -1.5428    0.8293   -3.0363 C   0  0  0  0  0  0  0  0  0  0  0  0
   -0.3627   -1.3104   -4.3324 C   0  0  0  0  0  0  0  0  0  0  0  0
   -2.3451    3.1125   -2.9467 C   0  0  0  0  0  0  0  0  0  0  0  0
   -2.1592    4.5775   -5.0954 C   0  0  0  0  0  0  0  0  0  0  0  0
   -7.6606    9.9603   -3.6640 C   0  0  0  0  0  0  0  0  0  0  0  0
   -7.5551    7.8918   -1.5509 C   0  0  0  0  0  0  0  0  0  0  0  0
   -1.2394    4.7997   -6.2845 C   0  0  0  0  0  0  0  0  0  0  0  0
   -3.0397    5.5282   -4.9495 N   0  0  0  0  0  0  0  0  0  0  0  0
   -4.0087    5.5504   -4.0365 N   0  0  0  0  0  0  0  0  0  0  0  0
   -2.8111    3.9558   -2.1970 O   0  0  0  0  0  0  0  0  0  0  0  0
   -2.1214    1.8743   -2.3751 O   0  0  0  0  0  0  0  0  0  0  0  0
    0.4546   -2.8017   -5.2135 Br  0  0  0  0  0  0  0  0  0  0  0  0
   -5.8554    9.4433   -5.6326 H   0  0  0  0  0  0  0  0  0  0  0  0
   -4.2524    7.5596   -5.8276 H   0  0  0  0  0  0  0  0  0  0  0  0
   -1.6759   -0.4381   -1.3055 H   0  0  0  0  0  0  0  0  0  0  0  0
   -0.6131   -2.3825   -2.4694 H   0  0  0  0  0  0  0  0  0  0  0  0
   -1.0562    2.3463   -6.0348 H   0  0  0  0  0  0  0  0  0  0  0  0
   -0.2291   -0.0304   -6.0602 H   0  0  0  0  0  0  0  0  0  0  0  0
   -5.6956    5.9964   -2.0940 H   0  0  0  0  0  0  0  0  0  0  0  0
   -8.7021    9.6187   -3.6220 H   0  0  0  0  0  0  0  0  0  0  0  0
   -7.4881   10.5606   -2.7623 H   0  0  0  0  0  0  0  0  0  0  0  0
   -7.5639   10.6240   -4.5276 H   0  0  0  0  0  0  0  0  0  0  0  0
   -7.3971    8.8195   -0.9884 H   0  0  0  0  0  0  0  0  0  0  0  0
   -8.6106    7.8772   -1.8473 H   0  0  0  0  0  0  0  0  0  0  0  0
   -7.3871    7.0544   -0.8687 H   0  0  0  0  0  0  0  0  0  0  0  0
   -1.4960    4.1547   -7.1353 H   0  0  0  0  0  0  0  0  0  0  0  0
   -1.3426    5.8331   -6.6158 H   0  0  0  0  0  0  0  0  0  0  0  0
   -0.1898    4.6122   -6.0311 H   0  0  0  0  0  0  0  0  0  0  0  0
   -3.9038    4.9833   -3.1932 H   0  0  0  0  0  0  0  0  0  0  0  0
  1  2  1  0  0  0  0
  1 10  2  0  0  0  0
  1 25  1  0  0  0  0
  2 12  2  0  0  0  0
  2 26  1  0  0  0  0
  3  4  2  0  0  0  0
  3 13  1  0  0  0  0
  3 27  1  0  0  0  0
  4 14  1  0  0  0  0
  4 28  1  0  0  0  0
  5  8  1  0  0  0  0
  5  9  2  0  0  0  0
  5 29  1  0  0  0  0
  6  8  1  0  0  0  0
  6 14  2  0  0  0  0
  6 30  1  0  0  0  0
  7 11  2  0  0  0  0
  7 12  1  0  0  0  0
  7 31  1  0  0  0  0
  8 13  2  0  0  0  0
  9 15  1  0  0  0  0
  9 16  1  0  0  0  0
 10 11  1  0  0  0  0
 10 17  1  0  0  0  0
 11 18  1  0  0  0  0
 12 21  1  0  0  0  0
 13 23  1  0  0  0  0
 14 24  1  0  0  0  0
 15 22  2  0  0  0  0
 15 23  1  0  0  0  0
 16 19  1  0  0  0  0
 16 20  2  0  0  0  0
 17 32  1  0  0  0  0
 17 33  1  0  0  0  0
 17 34  1  0  0  0  0
 18 35  1  0  0  0  0
 18 36  1  0  0  0  0
 18 37  1  0  0  0  0
 19 38  1  0  0  0  0
 19 39  1  0  0  0  0
 19 40  1  0  0  0  0
 20 21  1  0  0  0  0
 21 41  1  0  0  0  0
M  END
$$$$
