41
0 1 BrC18H17N4O
C                     2.028421144398    -7.280481718835     6.368514150210
C                     3.420753363630    -7.449096438030     6.231528448149
C                     1.923942046956    -1.664448608519    -0.249191183662
C                     1.292084089385    -6.524869637928     5.451981729630
C                     4.123141821999    -6.866961151239     5.170091426679
C                     0.931678065028    -0.704005533965    -0.438681509893
C                    -0.079959957141    -2.131723669230    -2.126861350888
C                     1.945174695148    -2.866437250894    -0.978348875582
C                     1.978052242409    -5.932313957550     4.385145592456
C                     3.380489349192    -6.109510401780     4.263503235448
C                     0.932440143713    -3.079965097371    -1.934648476701
C                    -0.070509635341    -0.958282417544    -1.377901355610
C                     2.573846349731    -4.869569868369     2.620868772082
C                     3.019660099485    -3.869874010568    -0.733718516838
C                     3.871659576187    -4.324409383937    -1.894101220161
C                     3.108873704425    -5.220188352749    -2.883928012944
C                     1.930255173414    -4.536609032657    -3.566083602918
C                     5.107311048929    -5.195608838620     2.648301842569
N                     1.503301484659    -5.155830301938     3.330937517983
N                     3.284902355094    -4.394171932183     0.414233570386
N                     3.747203800913    -5.394173077610     3.122641329082
N                     2.529169473615    -4.033913865774     1.509692871134
O                     0.838680250354    -4.235740799774    -2.670603169429
Br                   -1.455047058385     0.336652693440    -1.651799029472
H                     1.518502713881    -7.751468486711     7.204765440125
H                     3.960805917411    -8.045591504069     6.961838116522
H                     2.701515654160    -1.484674182255     0.487868145325
H                     0.218302638908    -6.396085997420     5.554184211459
H                     5.195483021446    -7.008587843273     5.065208836905
H                     0.934295687727     0.216832764537     0.134368497413
H                    -0.854111497035    -2.335306762471    -2.858609820347
H                     4.258739862661    -3.445147813905    -2.426218634665
H                     4.724101392120    -4.874728531241    -1.487711214935
H                     3.799996387445    -5.551168658082    -3.669456047934
H                     2.750019931455    -6.117041413713    -2.367421696578
H                     2.246272993115    -3.612569053278    -4.067702550356
H                     1.491847438642    -5.200426700784    -4.315162255602
H                     5.401943023636    -5.974287537177     1.938519741379
H                     5.188776695154    -4.228223038439     2.153972242414
H                     5.781764094177    -5.212441833397     3.508064788168
H                     1.580815272518    -3.696968775466     1.338532402089
