
  -OEChem-05262117483D

 41 44  0     0  0  0  0  0  0999 V2000
    3.4297   -7.3711    6.6486 C   0  0  0  0  0  0  0  0  0  0  0  0
    2.0947   -7.0494    6.9662 C   0  0  0  0  0  0  0  0  0  0  0  0
    3.0368   -1.8903    0.7337 C   0  0  0  0  0  0  0  0  0  0  0  0
    3.9877   -7.0326    5.4128 C   0  0  0  0  0  0  0  0  0  0  0  0
    1.2732   -6.3741    6.0564 C   0  0  0  0  0  0  0  0  0  0  0  0
    2.5309   -0.5934    0.8232 C   0  0  0  0  0  0  0  0  0  0  0  0
    1.3250   -0.9565   -1.2587 C   0  0  0  0  0  0  0  0  0  0  0  0
    2.6991   -2.7465   -0.3295 C   0  0  0  0  0  0  0  0  0  0  0  0
    3.1810   -6.3596    4.4872 C   0  0  0  0  0  0  0  0  0  0  0  0
    1.8389   -6.0446    4.8241 C   0  0  0  0  0  0  0  0  0  0  0  0
    1.8512   -2.2523   -1.3388 C   0  0  0  0  0  0  0  0  0  0  0  0
    1.6655   -0.1463   -0.1783 C   0  0  0  0  0  0  0  0  0  0  0  0
    2.3668   -5.3417    2.7877 C   0  0  0  0  0  0  0  0  0  0  0  0
    3.2365   -4.1375   -0.3676 C   0  0  0  0  0  0  0  0  0  0  0  0
    4.0613   -4.5602   -1.5563 C   0  0  0  0  0  0  0  0  0  0  0  0
    3.2053   -4.7468   -2.8213 C   0  0  0  0  0  0  0  0  0  0  0  0
    2.4996   -3.4819   -3.2978 C   0  0  0  0  0  0  0  0  0  0  0  0
   -0.0504   -4.9794    3.5064 C   0  0  0  0  0  0  0  0  0  0  0  0
    3.4827   -5.8897    3.2108 N   0  0  0  0  0  0  0  0  0  0  0  0
    3.0244   -5.0253    0.5425 N   0  0  0  0  0  0  0  0  0  0  0  0
    1.3238   -5.4006    3.7023 N   0  0  0  0  0  0  0  0  0  0  0  0
    2.1434   -4.7352    1.5557 N   0  0  0  0  0  0  0  0  0  0  0  0
    1.4571   -3.0188   -2.4077 O   0  0  0  0  0  0  0  0  0  0  0  0
    0.9497    1.6284   -0.0776 Br  0  0  0  0  0  0  0  0  0  0  0  0
    4.0365   -7.8933    7.3837 H   0  0  0  0  0  0  0  0  0  0  0  0
    1.6949   -7.3289    7.9372 H   0  0  0  0  0  0  0  0  0  0  0  0
    3.7170   -2.2508    1.5018 H   0  0  0  0  0  0  0  0  0  0  0  0
    5.0166   -7.2795    5.1666 H   0  0  0  0  0  0  0  0  0  0  0  0
    0.2463   -6.1224    6.3082 H   0  0  0  0  0  0  0  0  0  0  0  0
    2.8053    0.0539    1.6492 H   0  0  0  0  0  0  0  0  0  0  0  0
    0.6639   -0.6099   -2.0455 H   0  0  0  0  0  0  0  0  0  0  0  0
    4.8374   -3.8081   -1.7494 H   0  0  0  0  0  0  0  0  0  0  0  0
    4.5544   -5.5022   -1.3042 H   0  0  0  0  0  0  0  0  0  0  0  0
    3.8489   -5.0913   -3.6409 H   0  0  0  0  0  0  0  0  0  0  0  0
    2.4578   -5.5279   -2.6456 H   0  0  0  0  0  0  0  0  0  0  0  0
    3.2169   -2.6664   -3.4570 H   0  0  0  0  0  0  0  0  0  0  0  0
    1.9824   -3.6725   -4.2413 H   0  0  0  0  0  0  0  0  0  0  0  0
   -0.2483   -4.0068    3.9724 H   0  0  0  0  0  0  0  0  0  0  0  0
   -0.2572   -4.9143    2.4364 H   0  0  0  0  0  0  0  0  0  0  0  0
   -0.7252   -5.7211    3.9427 H   0  0  0  0  0  0  0  0  0  0  0  0
    1.7649   -3.7884    1.5912 H   0  0  0  0  0  0  0  0  0  0  0  0
  1  2  1  0  0  0  0
  1  4  2  0  0  0  0
  1 25  1  0  0  0  0
  2  5  2  0  0  0  0
  2 26  1  0  0  0  0
  3  6  2  0  0  0  0
  3  8  1  0  0  0  0
  3 27  1  0  0  0  0
  4  9  1  0  0  0  0
  4 28  1  0  0  0  0
  5 10  1  0  0  0  0
  5 29  1  0  0  0  0
  6 12  1  0  0  0  0
  6 30  1  0  0  0  0
  7 11  1  0  0  0  0
  7 12  2  0  0  0  0
  7 31  1  0  0  0  0
  8 11  2  0  0  0  0
  8 14  1  0  0  0  0
  9 10  2  0  0  0  0
  9 19  1  0  0  0  0
 10 21  1  0  0  0  0
 11 23  1  0  0  0  0
 12 24  1  0  0  0  0
 13 19  2  0  0  0  0
 13 21  1  0  0  0  0
 13 22  1  0  0  0  0
 14 15  1  0  0  0  0
 14 20  2  0  0  0  0
 15 16  1  0  0  0  0
 15 32  1  0  0  0  0
 15 33  1  0  0  0  0
 16 17  1  0  0  0  0
 16 34  1  0  0  0  0
 16 35  1  0  0  0  0
 17 23  1  0  0  0  0
 17 36  1  0  0  0  0
 17 37  1  0  0  0  0
 18 21  1  0  0  0  0
 18 38  1  0  0  0  0
 18 39  1  0  0  0  0
 18 40  1  0  0  0  0
 20 22  1  0  0  0  0
 22 41  1  0  0  0  0
M  END
$$$$
