15
0 1 C5H4N2O3S
C                    -0.248097279116     0.808265271577    -2.042839826361
C                    -0.939320209467     0.520030144454    -3.191659663666
C                    -0.527094543797    -0.137622783797    -1.020233204181
C                    -1.410168078908    -1.129832689106    -1.369415956703
C                    -1.863772491978    -2.233812616089    -0.479312413475
N                    -2.744623810894    -3.136908766906    -1.010754058098
N                     0.114089580017    -0.014107943813     0.300141079895
O                    -0.459900484145     0.691217702080     1.127977060424
O                    -1.453289682035    -2.309793250566     0.674179714635
O                     1.204732547923    -0.565145295719     0.438151067949
S                    -1.919921898270    -0.891769620633    -3.022605933765
H                     0.426047171150     1.649076391556    -1.925340276025
H                    -0.926251352733     1.061101083901    -4.129138728031
H                    -3.056703430292    -3.889355098067    -0.410508829586
H                    -3.093547716383    -3.097042958319    -1.957966686365
