
  -OEChem-05262117483D

 20 21  0     0  0  0  0  0  0999 V2000
    1.7960   -0.9825   -0.0531 C   0  0  0  0  0  0  0  0  0  0  0  0
    0.7465   -0.4058    0.6701 C   0  0  0  0  0  0  0  0  0  0  0  0
    2.8278   -1.6361    0.6192 C   0  0  0  0  0  0  0  0  0  0  0  0
    0.7260   -0.4875    2.0646 C   0  0  0  0  0  0  0  0  0  0  0  0
    7.1088   -1.9612    1.1615 C   0  0  0  0  0  0  0  0  0  0  0  0
    7.6516   -2.8919    2.0175 C   0  0  0  0  0  0  0  0  0  0  0  0
    2.8230   -1.7500    2.0213 C   0  0  0  0  0  0  0  0  0  0  0  0
    1.7529   -1.1620    2.7156 C   0  0  0  0  0  0  0  0  0  0  0  0
    5.2706   -2.4959    2.2668 C   0  0  0  0  0  0  0  0  0  0  0  0
    3.8625   -2.5295    2.7555 C   0  0  0  0  0  0  0  0  0  0  0  0
    5.7654   -1.7454    1.3106 N   0  0  0  0  0  0  0  0  0  0  0  0
    3.6002   -3.2018    3.7479 O   0  0  0  0  0  0  0  0  0  0  0  0
    1.7178   -1.2055    4.0629 F   0  0  0  0  0  0  0  0  0  0  0  0
    6.4424   -3.5308    3.0637 S   0  0  0  0  0  0  0  0  0  0  0  0
    1.8129   -0.9190   -1.1371 H   0  0  0  0  0  0  0  0  0  0  0  0
   -0.0561    0.1121    0.1521 H   0  0  0  0  0  0  0  0  0  0  0  0
    3.6463   -2.0717    0.0594 H   0  0  0  0  0  0  0  0  0  0  0  0
   -0.0683   -0.0401    2.6542 H   0  0  0  0  0  0  0  0  0  0  0  0
    7.6603   -1.4087    0.4084 H   0  0  0  0  0  0  0  0  0  0  0  0
    8.6825   -3.2169    2.0790 H   0  0  0  0  0  0  0  0  0  0  0  0
  1  2  1  0  0  0  0
  1  3  2  0  0  0  0
  1 15  1  0  0  0  0
  2  4  2  0  0  0  0
  2 16  1  0  0  0  0
  3  7  1  0  0  0  0
  3 17  1  0  0  0  0
  4  8  1  0  0  0  0
  4 18  1  0  0  0  0
  5  6  2  0  0  0  0
  5 11  1  0  0  0  0
  5 19  1  0  0  0  0
  6 14  1  0  0  0  0
  6 20  1  0  0  0  0
  7  8  2  0  0  0  0
  7 10  1  0  0  0  0
  8 13  1  0  0  0  0
  9 10  1  0  0  0  0
  9 11  2  0  0  0  0
  9 14  1  0  0  0  0
 10 12  2  0  0  0  0
M  END
$$$$
