20
0 1 C10FH6NOS
C                     1.812263959239    -1.185307706670    -0.132815637472
C                     0.838223649798    -0.429855072149     0.531360770470
C                     2.832380056503    -1.793249277950     0.596807121840
C                     0.879699543550    -0.291540346814     1.920985438628
C                     5.547818564164     0.150545476494     4.927794321383
C                     6.275934173862    -0.856827800699     5.520243690060
C                     2.915019317239    -1.639412282163     1.990713151139
C                     1.915101480180    -0.895468616962     2.625961838146
C                     4.775021458633    -1.545145315326     3.745367174984
C                     4.042146466144    -2.310201119193     2.707307974991
N                     4.703810192520    -0.248646887859     3.928792262530
O                     4.404179440544    -3.444822877930     2.408536151712
F                     1.899674562170    -0.803852790907     3.975779663934
S                     5.908511582489    -2.374702090184     4.794002283164
H                     1.772891862406    -1.300713260449    -1.211962293978
H                     0.036955990108     0.043524957872    -0.029442816740
H                     3.590651125891    -2.392022663551     0.101229409608
H                     0.121495213993     0.263475036563     2.464714361120
H                     5.602614716159     1.199841754556     5.196964934599
H                     6.990948086088    -0.775181149409     6.329074826704
