
  -OEChem-05262117483D

 20 21  0     0  0  0  0  0  0999 V2000
    1.9460   -0.8524   -0.0686 C   0  0  0  0  0  0  0  0  0  0  0  0
    0.9709   -0.1948    0.6792 C   0  0  0  0  0  0  0  0  0  0  0  0
    2.8632   -1.7028    0.5573 C   0  0  0  0  0  0  0  0  0  0  0  0
   -0.8010    3.6264    1.6769 C   0  0  0  0  0  0  0  0  0  0  0  0
   -1.8619    3.7175    2.5492 C   0  0  0  0  0  0  0  0  0  0  0  0
    0.8724   -0.3911    2.0684 C   0  0  0  0  0  0  0  0  0  0  0  0
    2.7798   -1.8868    1.9314 C   0  0  0  0  0  0  0  0  0  0  0  0
    1.7928   -1.2513    2.6847 C   0  0  0  0  0  0  0  0  0  0  0  0
   -0.6761    1.6015    2.5531 C   0  0  0  0  0  0  0  0  0  0  0  0
   -0.2244    0.2212    2.8800 C   0  0  0  0  0  0  0  0  0  0  0  0
   -0.1389    2.4291    1.6872 N   0  0  0  0  0  0  0  0  0  0  0  0
   -0.7640   -0.3784    3.8035 O   0  0  0  0  0  0  0  0  0  0  0  0
    3.6608   -2.6909    2.5623 F   0  0  0  0  0  0  0  0  0  0  0  0
    1.7801   -1.4577    4.0092 F   0  0  0  0  0  0  0  0  0  0  0  0
   -2.0497    2.2506    3.4303 S   0  0  0  0  0  0  0  0  0  0  0  0
    2.0002   -0.7001   -1.1421 H   0  0  0  0  0  0  0  0  0  0  0  0
    0.2732    0.4738    0.1911 H   0  0  0  0  0  0  0  0  0  0  0  0
    3.6407   -2.2195    0.0026 H   0  0  0  0  0  0  0  0  0  0  0  0
   -0.4701    4.4166    1.0116 H   0  0  0  0  0  0  0  0  0  0  0  0
   -2.5202    4.5619    2.7095 H   0  0  0  0  0  0  0  0  0  0  0  0
  1  2  1  0  0  0  0
  1  3  2  0  0  0  0
  1 16  1  0  0  0  0
  2  6  2  0  0  0  0
  2 17  1  0  0  0  0
  3  7  1  0  0  0  0
  3 18  1  0  0  0  0
  4  5  2  0  0  0  0
  4 11  1  0  0  0  0
  4 19  1  0  0  0  0
  5 15  1  0  0  0  0
  5 20  1  0  0  0  0
  6  8  1  0  0  0  0
  6 10  1  0  0  0  0
  7  8  2  0  0  0  0
  7 13  1  0  0  0  0
  8 14  1  0  0  0  0
  9 10  1  0  0  0  0
  9 11  2  0  0  0  0
  9 15  1  0  0  0  0
 10 12  2  0  0  0  0
M  END
$$$$
