20
0 1 C10FH6NOS
C                     1.524008188913    -1.296862078047    -0.106050044660
C                     0.719654500025    -0.463447029811     0.681727945994
C                     2.654712919728    -1.894207140272     0.447804652007
C                     1.042674196782    -0.232840613289     2.021009652430
C                     6.914059108345    -1.065314345227     4.451015237969
C                     6.679603181621     0.213084676438     3.998624942633
C                     3.020412991654    -1.651801246725     1.782776818616
C                     2.184826337732    -0.828986724000     2.544806242140
C                     5.220494524099    -1.523216714434     3.110010361198
C                     4.242291616759    -2.334651011363     2.325817662565
N                     6.097374188129    -2.033892540417     3.937675729702
O                     4.466930607712    -3.507875543814     2.070690359457
F                     2.462858647770    -0.630029158173     3.857691668539
S                     5.361527040086     0.217301282164     2.892254595187
H                     1.265259519773    -1.482466375555    -1.144296679222
H                    -0.167067775455    -0.000025458716     0.258194477722
H                     3.280473290011    -2.557296925145    -0.142140009804
H                     0.423183269378     0.385517059951     2.663179305298
H                     7.684385141515    -1.337946957466     5.164555381080
H                     7.208547543735     1.122851767468     4.252410220583
