29   
torsion grid (-165,)
C       -1.6668912599    2.1389704468   -1.5076303529
C       -0.3730362679    1.8061047731   -1.9258259430
C       -2.2390591808    1.4480406461   -0.4362240106
C        0.3344730151    0.7910217889   -1.2798767789
C       -1.5233510578    0.4375503951    0.2149153045
C       -0.2299193463    0.0922854881   -0.1984962987
C        2.0485636628   -0.6629147490    0.6741495352
C       -0.0351520652   -1.9930116148    1.4216412563
C        0.3139165553   -2.4269259000    0.0225891581
C        0.5786843879   -0.9965838084    0.4480312593
C        1.3030990518    1.1905152960    2.1800151129
C        3.6575121497    0.9957790388    1.4650891943
N        2.3170078189    0.4227792998    1.4698211275
O        2.9464358978   -1.3234258922    0.1438524188
H       -2.2206576285    2.9274459037   -2.0105838731
H        0.0823896675    2.3345686713   -2.7596923330
H       -3.2416584346    1.6998326785   -0.0993060509
H        1.3347384059    0.5297619333   -1.6171155665
H       -1.9788233814   -0.0720977695    1.0591692759
H       -1.0824067887   -1.8879575092    1.6871095170
H        0.5996543464   -2.3384568427    2.2325916484
H        1.1879691593   -3.0510287188   -0.1284436728
H       -0.5024963901   -2.5758203559   -0.6768057568
H        1.7280396564    1.5407653209    3.1268384433
H        0.9682016783    2.0622648803    1.6033107205
H        0.4372827326    0.5714910289    2.4074859509
H        3.6314152359    2.0133518195    1.0533215761
H        4.0602745102    1.0439661080    2.4840008571
H        4.3065098381    0.3707940653    0.8540422675
29   
torsion grid (-150,)
C       -1.6276058595    2.1672331650   -1.4387648323
C       -0.3278599564    1.8350757630   -1.8387027050
C       -2.2076396608    1.4830356774   -0.3672015913
C        0.3757958437    0.8286949987   -1.1750154228
C       -1.4962019538    0.4818728395    0.3028056989
C       -0.1970989394    0.1378350872   -0.0929243703
C        2.0679530118   -0.5657545376    0.8258648849
C       -0.0118415970   -1.9387033051    1.5390665432
C        0.3841638138   -2.3741967006    0.1533932196
C        0.6116447113   -0.9371496354    0.5761028441
C        1.2513272679    1.2628604787    2.3165119441
C        3.5103940564    1.3290138071    1.3562548409
N        2.3015913387    0.5489733861    1.6011280740
O        2.9886049328   -1.1909035489    0.2948779348
H       -2.1790658190    2.9486096706   -1.9551995549
H        0.1349889603    2.3570071889   -2.6725715543
H       -3.2148746481    1.7340286180   -0.0439239423
H        1.3801572865    0.5670379008   -1.4996133699
H       -1.9581907781   -0.0202360284    1.1479144277
H       -1.0681055679   -1.8508934586    1.7731524505
H        0.6045482741   -2.2693571522    2.3701063975
H        1.2728348749   -2.9838148302    0.0303580265
H       -0.4092835588   -2.5423167636   -0.5677604047
H        1.6815099161    1.6957309854    3.2261971898
H        0.8166553169    2.0729042865    1.7161720549
H        0.4548060569    0.5813153789    2.6106724143
H        3.2596485730    2.2489689184    0.8098170513
H        3.9891136740    1.6057403377    2.3024671219
H        4.2056798082    0.7314306167    0.7687565781
29   
torsion grid (-135,)
C       -1.5543631023    2.2016106005   -1.4089463792
C       -0.2624071817    1.8366203429   -1.8057373991
C       -2.1609348514    1.5272095965   -0.3457908486
C        0.4095136397    0.8060257631   -1.1464691207
C       -1.4802548090    0.5022745212    0.3199846958
C       -0.1891808303    0.1254661953   -0.0718396887
C        2.0377357318   -0.6139890052    0.8992107243
C       -0.0784592666   -1.9898767228    1.5146147451
C        0.3635152336   -2.3975640292    0.1356454144
C        0.5879924336   -0.9714993573    0.5974016536
C        1.2072653680    1.2055268671    2.3794194065
C        3.3248426051    1.4366278899    1.1804207314
N        2.2698341355    0.5348252962    1.6381556424
O        2.9679369289   -1.2526380478    0.4067667504
H       -2.0806562929    3.0019374217   -1.9225430486
H        0.2186192865    2.3514159803   -2.6337180612
H       -3.1624243377    1.8044383029   -0.0261072013
H        1.4071234842    0.5170019350   -1.4688922603
H       -1.9580757795    0.0074354124    1.1605649449
H       -1.1416883904   -1.8947912234    1.7114932698
H        0.5039709115   -2.3447900500    2.3599312065
H        1.2515499967   -3.0114487120    0.0307135081
H       -0.4047732348   -2.5416769222   -0.6172313235
H        1.6484204943    1.6858085122    3.2598847301
H        0.6983898709    1.9738416751    1.7822248081
H        0.4671403998    0.4840622839    2.7238612173
H        2.8937438808    2.2344667223    0.5583598672
H        3.8347895869    1.8959440874    2.0343081886
H        4.0528890585    0.8705311544    0.6005512027
29   
torsion grid (-120,)
C       -1.4462857031    2.2271737859   -1.4020137422
C       -0.1907726164    1.7881245342   -1.8388327252
C       -2.0461200273    1.6094118664   -0.3011246768
C        0.4537024282    0.7391253727   -1.1810637225
C       -1.3913131898    0.5659195766    0.3614903105
C       -0.1369070732    0.1146376746   -0.0691549514
C        2.0502145410   -0.6658057234    0.9573877522
C       -0.1047302429   -2.0361873049    1.4653009267
C        0.3866258831   -2.4171978326    0.0958280557
C        0.6088929390   -1.0047706984    0.5984482266
C        1.2219648433    1.0990201565    2.4862488054
C        3.1463568161    1.5053261587    1.0493156180
N        2.2878168997    0.5030898471    1.6838202788
O        2.9869581406   -1.3148186119    0.4980250241
H       -1.9510163384    3.0415425623   -1.9151751129
H        0.2826922624    2.2592809477   -2.6965845971
H       -3.0194647323    1.9445306555    0.0486559148
H        1.4217817407    0.3906351973   -1.5333809827
H       -1.8582194507    0.1121947395    1.2309558978
H       -1.1737569893   -1.9279208589    1.6198192185
H        0.4377281552   -2.4194827612    2.3246742795
H        1.2707746845   -3.0398504116    0.0122858896
H       -0.3535564411   -2.5357383206   -0.6890350425
H        1.6793003707    1.6240923598    3.3323551344
H        0.6127892306    1.8178103068    1.9219401382
H        0.5676055057    0.3235744667    2.8853338667
H        2.5457911822    2.1821167615    0.4239976209
H        3.6640593803    2.0975673100    1.8115729409
H        3.8934367954    1.0024297827    0.4351291213
29   
torsion grid (-105,)
C       -1.3487258846    2.2322585377   -1.4241283276
C       -0.1470686118    1.7085058362   -1.9154213493
C       -1.9150815199    1.6906885886   -0.2666011269
C        0.4771681439    0.6513276246   -1.2510845585
C       -1.2807596515    0.6372719040    0.3999470803
C       -0.0786508129    0.1038020020   -0.0827321565
C        2.0694365826   -0.7187141767    1.0182058607
C       -0.1192399725   -2.0665807009    1.4101917205
C        0.4189704165   -2.4317461781    0.0543576156
C        0.6418661765   -1.0308946325    0.5875196985
C        1.2651040895    0.9722443564    2.6233293628
C        2.9559712185    1.5495442936    0.9790441527
N        2.3172118206    0.4692773402    1.7385455386
O        3.0088079134   -1.3991614480    0.6238192857
H       -1.8394350949    3.0530955316   -1.9405987366
H        0.2992922328    2.1198178236   -2.8173201982
H       -2.8476815171    2.0916812523    0.1225127691
H        1.4042462130    0.2371203113   -1.6407289418
H       -1.7205011656    0.2366252451    1.3089710417
H       -1.1913698791   -1.9389633485    1.5237365054
H        0.3824118098   -2.4748204636    2.2827379649
H        1.2953104097   -3.0680091960   -0.0036931415
H       -0.2923721954   -2.5275891095   -0.7598435878
H        1.7385590393    1.5526398056    3.4231733152
H        0.5390779995    1.6201530887    2.1135086574
H        0.7294765942    0.1412877850    3.0855728997
H        2.2138969887    2.1244898315    0.4066580014
H        3.4741972059    2.2276031964    1.6658977547
H        3.6945195283    1.1257122151    0.2965707881
29   
torsion grid (-90,)
C       -1.4264405239    2.3071402279   -1.8077446607
C       -0.4518176356    1.5151760075   -2.4215337521
C       -1.7786195699    2.0609913659   -0.4748215907
C        0.1673258275    0.4860966681   -1.7037972420
C       -1.1574282279    1.0328794866    0.2364253265
C       -0.1764538601    0.2333938665   -0.3687466126
C        1.5702856745   -0.4590224799    1.4155972802
C       -0.3149528976   -2.0505020014    0.8805553916
C        0.6853713637   -2.2194686593   -0.2234971063
C        0.5161444673   -0.8483295816    0.4080550134
C        1.9335658749    1.0084859831    3.2764643152
C        2.3245550636    1.8017693771    1.0364800587
N        1.5159955225    0.8911608281    1.8689891819
O        2.2659282651   -1.3052860733    1.9638453967
H       -1.9104758750    3.1070387717   -2.3623556953
H       -0.1730527900    1.6972680477   -3.4564826842
H       -2.5371555425    2.6719228407    0.0084172105
H        0.9288169396   -0.1252278204   -2.1823634538
H       -1.4210940911    0.8502969461    1.2743146470
H       -1.3693105309   -2.0222744121    0.6231003963
H       -0.0706339495   -2.4620585519    1.8539436194
H        1.6030436234   -2.7465090857    0.0144383706
H        0.3099467592   -2.3438489799   -1.2339487235
H        2.9990769222    0.7899788251    3.4291250007
H        1.7272727621    2.0325783332    3.6019538506
H        1.3509114862    0.3190296972    3.8905709386
H        2.1389329007    2.8322831174    1.3525595438
H        3.3995363177    1.5868516990    1.1322290420
H        2.0357732084    1.7143473192   -0.0131719609
29   
torsion grid (-75,)
C       -1.4332508224    2.3314182777   -1.7776876825
C       -0.4781324188    1.5284283780   -2.4067866212
C       -1.7551527521    2.0965576372   -0.4349472534
C        0.1525948060    0.5015044100   -1.6956328271
C       -1.1248740129    1.0692658071    0.2686924076
C       -0.1598669751    0.2597628363   -0.3509326193
C        1.4736412871   -0.4680389023    1.5505486390
C       -0.3054995098   -2.0803207429    0.7524414572
C        0.8046606397   -2.1627512803   -0.2476271373
C        0.5216768793   -0.8269555017    0.4294794627
C        2.0266280549    1.0945550670    3.2843711801
C        2.2942326498    1.7540750551    0.9748043972
N        1.5507058915    0.8924529838    1.9089369716
O        1.9857299765   -1.3475456903    2.2385606188
H       -1.9249741989    3.1302985580   -2.3269018074
H       -0.2212870482    1.7011093258   -3.4490020224
H       -2.4994907282    2.7143714217    0.0614364183
H        0.9033554278   -0.1113547792   -2.1881742835
H       -1.3701954249    0.8937932442    1.3124155172
H       -1.3271085882   -2.0708809469    0.3854281925
H       -0.1442947254   -2.5279628986    1.7266808306
H        1.7128934445   -2.6694902947    0.0606271542
H        0.5423601755   -2.2527538221   -1.2964937740
H        3.0871381125    0.8366877190    3.4085786885
H        1.8827279358    2.1489127807    3.5387153589
H        1.4441408451    0.4777174928    3.9699208686
H        2.0926696071    2.8025306994    1.2130006616
H        3.3769882663    1.5747878196    1.0501950984
H        1.9770552358    1.5760313773   -0.0524192904
29   
torsion grid (-60,)
C       -1.4932926082    2.3513912931   -1.7495536135
C       -0.5593511277    1.5443006368   -2.4035458848
C       -1.7694207751    2.1247219135   -0.3951341560
C        0.0953188069    0.5217100497   -1.7074501446
C       -1.1176116536    1.1010263979    0.2929612794
C       -0.1728566563    0.2858170254   -0.3522755572
C        1.3118283989   -0.4799396489    1.6603135534
C       -0.2791860807   -2.1235210025    0.5583491480
C        0.9487894854   -2.0863140234   -0.2943102627
C        0.5007236775   -0.8114228857    0.4215000972
C        2.0639903293    1.1353500457    3.2721102901
C        2.3438677184    1.6207070270    0.9081704611
N        1.5864216956    0.8646600322    1.9129667769
O        1.5833174090   -1.3555286130    2.4818040948
H       -2.0023613047    3.1472571175   -2.2871058123
H       -0.3353234509    1.7107483205   -3.4543277975
H       -2.4967799370    2.7452465892    0.1225600328
H        0.8318057705   -0.0879184323   -2.2240066723
H       -1.3335008310    0.9308817455    1.3442066508
H       -1.2429656031   -2.1423865773    0.0595255556
H       -0.2162324889   -2.6203611923    1.5196271011
H        1.8417447655   -2.5616299227    0.0978005989
H        0.8309804302   -2.1287088892   -1.3717343494
H        3.0924888620    0.7835609261    3.4317456348
H        2.0271932286    2.2162869245    3.4370071390
H        1.4190011291    0.6363648849    3.9955120504
H        2.1662745388    2.6918636317    1.0440313765
H        3.4217598853    1.4258649432    1.0076528740
H        2.0311214407    1.3540015705   -0.0992010890
29   
torsion grid (-45,)
C       -1.5949039302    2.3389442216   -1.7247615716
C       -0.6807868607    1.5306515747   -2.4042422366
C       -1.8238381026    2.1182896192   -0.3607606198
C        0.0003143194    0.5130382229   -1.7263098769
C       -1.1467879205    1.0995024594    0.3095802206
C       -0.2228101090    0.2810305953   -0.3624163532
C        1.1059983865   -0.4848317604    1.7348072687
C       -0.2158658600   -2.1888694257    0.3753978731
C        1.0976035161   -2.0045373757   -0.3229398565
C        0.4554468742   -0.8208281469    0.4014649085
C        2.0853744770    1.1366427365    3.2254298198
C        2.4451962450    1.3833998138    0.8190669087
N        1.6323622415    0.7869836235    1.8795734522
O        1.0775369260   -1.2787226248    2.6769553171
H       -2.1230735888    3.1312019779   -2.2489446992
H       -0.4910481489    1.6928545130   -3.4624195665
H       -2.5343805418    2.7394868397    0.1789505942
H        0.7199919713   -0.0934192668   -2.2689112459
H       -1.3315491948    0.9335404203    1.3676942177
H       -1.1078054370   -2.2591462926   -0.2388011029
H       -0.2278005630   -2.7327131278    1.3130748211
H        1.9789830946   -2.4328045979    0.1441995411
H        1.1151649329   -1.9974284689   -1.4075361363
H        3.0476896475    0.6670247825    3.4718221847
H        2.1957327040    2.2236659722    3.2810852311
H        1.3494405835    0.8064446328    3.9581786755
H        2.3251845702    2.4715282575    0.8224857772
H        3.5080672921    1.1461345020    0.9708501124
H        2.1438446463    1.0146235970   -0.1581913617
29   
torsion grid (-30,)
C       -1.6403045635    2.3964189220   -1.6962853417
C       -0.7725453811    1.5623754742   -2.4053043881
C       -1.8341260810    2.1779481916   -0.3268823547
C       -0.1021451382    0.5222987480   -1.7518451286
C       -1.1686827191    1.1358201385    0.3195114932
C       -0.2912202706    0.2915677634   -0.3824987658
C        0.9585482329   -0.5104432640    1.7304650023
C       -0.2683671289   -2.2061043761    0.2694312979
C        1.0713278926   -1.9768745015   -0.3697584820
C        0.3744155837   -0.8319125989    0.3607082205
C        2.1228513020    1.0474525829    3.1775282102
C        2.4232626937    1.2533286328    0.7448543586
N        1.6715457580    0.6596532323    1.8453245197
O        0.7465721424   -1.2343965201    2.7068147698
H       -2.1589225358    3.2067057281   -2.2020627454
H       -0.6099781932    1.7227993904   -3.4682807497
H       -2.5082969380    2.8185361206    0.2363046520
H        0.5811669206   -0.1028604268   -2.3194842549
H       -1.3293052179    0.9703075843    1.3818431616
H       -1.1315636426   -2.2804982085   -0.3840919587
H       -0.3125827473   -2.7739999631    1.1920125468
H        1.9429166891   -2.4031011241    0.1181233663
H        1.1337950369   -1.9419952228   -1.4524506060
H        3.0839264323    0.5804060942    3.4335667565
H        2.2412854826    2.1352197331    3.2063642634
H        1.3851051288    0.7381920267    3.9169681065
H        2.1848620371    2.3180241139    0.6412081117
H        3.5006902549    1.1520669389    0.9329827824
H        2.1943566544    0.7600669040   -0.1958124315
29   
torsion grid (-15,)
C       -1.6156578391    2.3782723642   -1.6863466360
C       -0.7318412566    1.5457217500   -2.3775715516
C       -1.8447498880    2.1536448605   -0.3235374045
C       -0.0797376046    0.5014368887   -1.7126794903
C       -1.1985736839    1.1060817009    0.3341216230
C       -0.3050480679    0.2640724770   -0.3503420411
C        0.8679244781   -0.5070460946    1.7986103270
C       -0.2764243382   -2.2358366239    0.3031569188
C        1.0822115822   -1.9897174203   -0.2944110782
C        0.3456703259   -0.8567342295    0.4101146461
C        2.1195406985    1.0529517724    3.1954301848
C        2.3847557103    1.1832855031    0.7438560862
N        1.7157684859    0.5668716077    1.8822657303
O        0.5156429469   -1.1400268696    2.7984422740
H       -2.1192576894    3.1924091215   -2.2010300375
H       -0.5419075870    1.7116539682   -3.4351659378
H       -2.5316132829    2.7930103579    0.2255130671
H        0.6181478424   -0.1211722187   -2.2652690189
H       -1.3881719643    0.9327040595    1.3906963388
H       -1.1165690929   -2.3285593934   -0.3775532748
H       -0.3444041067   -2.8019145118    1.2256457478
H        1.9435640741   -2.4052886183    0.2206353586
H        1.1786432056   -1.9580878304   -1.3750021529
H        3.1510471753    0.7567217630    3.4284610992
H        2.0585798406    2.1472122036    3.2150617160
H        1.4568222773    0.6334728985    3.9506820517
H        1.9429307503    2.1553838715    0.4923347262
H        3.4423022950    1.3327700564    0.9903741726
H        2.3312295230    0.5426145775   -0.1335069673
29   
torsion grid (0,)
C       -1.6368646662    2.3850053668   -1.6992095656
C       -0.7873418795    1.5255038900   -2.4009206808
C       -1.8449254522    2.1761442745   -0.3309114786
C       -0.1475035807    0.4710425882   -1.7408627224
C       -1.2118280710    1.1176524461    0.3227813136
C       -0.3516424475    0.2497248999   -0.3721531589
C        0.7699984462   -0.5309614243    1.7882163820
C       -0.3168062771   -2.2612970891    0.2476763942
C        1.0547093975   -1.9937230323   -0.3146195283
C        0.2902303025   -0.8791056923    0.3839881482
C        2.1375307618    0.9216456700    3.1968866818
C        2.3509096998    1.1056956017    0.7435899463
N        1.7524814754    0.4219940209    1.8826162044
O        0.3000303377   -1.0892413962    2.7839595499
H       -2.1301234160    3.2074584936   -2.2106262121
H       -0.6143882715    1.6787123998   -3.4633415191
H       -2.5054771729    2.8358689126    0.2262726629
H        0.5238433166   -0.1719955114   -2.3026445556
H       -1.3879732128    0.9552720076    1.3834046481
H       -1.1395841165   -2.3555917592   -0.4537923526
H       -0.4038727869   -2.8397792069    1.1609268457
H        1.9081925584   -2.4057496220    0.2163506097
H        1.1779548252   -1.9522624016   -1.3922485279
H        3.2138927235    0.7852066601    3.3572099954
H        1.9069738441    1.9917624026    3.2806683889
H        1.5880274598    0.3713305943    3.9586076629
H        1.8441455131    2.0539109788    0.5233634701
H        3.4009419193    1.3162734050    0.9724546113
H        2.3187350901    0.4809562233   -0.1467945047
29   
torsion grid (15,)
C       -1.7309278820    2.4118470596   -1.1937510590
C       -2.3000624088    1.1506449349   -1.3873921173
C       -0.5019992803    2.5144813756   -0.5309367900
C       -1.6501591222    0.0032453698   -0.9194468142
C        0.1469033656    1.3670767529   -0.0728641876
C       -0.4177247511    0.0933078296   -0.2591045593
C        0.9647490310   -0.9692525348    1.6251751206
C       -0.0363987029   -2.5244487773   -0.1639456361
C        1.1833801041   -1.8730116570   -0.7561905058
C        0.3390797620   -1.1041848634    0.2421318043
C        0.6968376914   -0.2719206573    3.9474897437
C       -1.3246575149   -0.5866443222    2.5662323766
N        0.1305993861   -0.5773131972    2.6400739265
O        2.1685643732   -1.1708860490    1.8106724998
H       -2.2374550327    3.3038842753   -1.5529534693
H       -3.2558377505    1.0570787125   -1.8971400790
H       -0.0471364003    3.4896615552   -0.3755249697
H       -2.1207901912   -0.9650718716   -1.0638972279
H        1.1051840943    1.4543857269    0.4334955141
H       -0.9061488124   -2.6753026557   -0.7953661273
H        0.1170443618   -3.3003401768    0.5805848426
H        2.1614859190   -2.1894741089   -0.4108140477
H        1.1264242684   -1.5381597990   -1.7869499825
H        0.2498418275    0.6517734186    4.3329523197
H        0.4996819903   -1.0802716407    4.6643540617
H        1.7740702547   -0.1469166413    3.8500918039
H       -1.7244441302   -1.0500363571    3.4756653020
H       -1.7321747197    0.4284501956    2.4822292429
H       -1.6681761668   -1.1680132641    1.7136216376
29   
torsion grid (30,)
C       -1.7268920419    2.3648435711   -1.2259595273
C       -2.3033546423    1.1054740848   -1.4074861861
C       -0.5095554124    2.4689499948   -0.5419411179
C       -1.6715169781   -0.0385996842   -0.9073012327
C        0.1202177097    1.3250684805   -0.0504791857
C       -0.4510886902    0.0526918316   -0.2245348230
C        0.8820762450   -1.0378080910    1.6999635725
C       -0.0811436279   -2.5651448298   -0.1206428309
C        1.1528286041   -1.9175866318   -0.6809721363
C        0.2878560876   -1.1453197245    0.3014456224
C        0.6940938555   -0.2348097762    3.9794411328
C       -1.3642502851   -0.5439236902    2.6685983383
N        0.0926639031   -0.4677026937    2.6707717097
O        2.0418622118   -1.3869078574    1.9352170529
H       -2.2184164345    3.2545225473   -1.6109464315
H       -3.2500192409    1.0103383070   -1.9336620666
H       -0.0491469062    3.4429342256   -0.3955783682
H       -2.1467582215   -1.0056206334   -1.0450101327
H        1.0677784247    1.4147650640    0.4747133378
H       -0.9370122905   -2.7089203161   -0.7719066967
H        0.0517924367   -3.3422612727    0.6262167353
H        2.1202466372   -2.2405424918   -0.3129762418
H        1.1182774362   -1.5750704639   -1.7101509573
H        0.1678909156    0.5921291511    4.4666887168
H        0.6273092217   -1.1236206882    4.6220555451
H        1.7461687742    0.0199520533    3.8572764714
H       -1.7032083754   -1.2075673557    3.4755648918
H       -1.8056024099    0.4474045304    2.8224174741
H       -1.7336336352   -0.9385203224    1.7260505990
29   
torsion grid (45,)
C       -1.7515067814    2.3615890520   -1.2188908139
C       -2.3375268549    1.1033700774   -1.3744179254
C       -0.5217203863    2.4694959682   -0.5574845975
C       -1.7018900767   -0.0373826507   -0.8706838332
C        0.1096510856    1.3284093073   -0.0624445197
C       -0.4699923896    0.0564841123   -0.2094805070
C        0.7938445260   -1.0971609257    1.7461504776
C       -0.0473715852   -2.5483716836   -0.1853089476
C        1.1979676489   -1.8582268637   -0.6536098169
C        0.2695399837   -1.1400978005    0.3190417457
C        0.7004424277   -0.1822394166    3.9739062134
C       -1.3848364085   -0.4476812009    2.7251724271
N        0.0737201356   -0.3519155132    2.6638422959
O        1.8665350334   -1.6232776259    2.0478628053
H       -2.2450870623    3.2486954167   -1.6072115329
H       -3.2933699859    1.0061372966   -1.8833032257
H       -0.0543484599    3.4430764710   -0.4317551472
H       -2.1829690640   -1.0044335743   -0.9865829687
H        1.0646484256    1.4194333692    0.4482986145
H       -0.8682119290   -2.6749793159   -0.8830493054
H        0.0665099873   -3.3534532944    0.5339769587
H        2.1492817334   -2.1860494698   -0.2502799351
H        1.2085884753   -1.4647501161   -1.6649350238
H        0.2002745649    0.6412079799    4.4922795432
H        0.6240348961   -1.0896557430    4.5888626655
H        1.7569029702    0.0539917069    3.8483941396
H       -1.6886070639   -1.2334229194    3.4319722246
H       -1.8090238342    0.5051746830    3.0578563365
H       -1.8028988902   -0.6795549911    1.7489155144
29   
torsion grid (60,)
C       -1.8199097276    2.3113108839   -1.1649258729
C       -2.3979179539    1.0456766156   -1.2888584938
C       -0.5715781253    2.4390348378   -0.5424898155
C       -1.7347605923   -0.0819186523   -0.7911559575
C        0.0873861248    1.3113104846   -0.0523728970
C       -0.4856235155    0.0336988851   -0.1664836184
C        0.6413158705   -1.2181564186    1.8340215360
C        0.0811643921   -2.5257286473   -0.2893186316
C        1.3341647899   -1.7523218078   -0.5501994507
C        0.2602891978   -1.1562154792    0.3665791536
C        0.7497486858   -0.1664971626    3.9915012283
C       -1.3729501640   -0.2007745311    2.8097306215
N        0.0887299863   -0.2614912318    2.6866009526
O        1.5186705714   -1.9905424188    2.2196245266
H       -2.3332985995    3.1889486553   -1.5492474302
H       -3.3669046806    0.9332211629   -1.7689056094
H       -0.1112662725    3.4190390166   -0.4433943556
H       -2.2040059565   -1.0580735239   -0.8792175775
H        1.0543683414    1.4161048232    0.4319533160
H       -0.6480835976   -2.6131445281   -1.0874738571
H        0.1541976745   -3.3821426063    0.3727659265
H        2.2463323173   -2.0832503225   -0.0671555605
H        1.4398370832   -1.2661441370   -1.5148310440
H        0.4029996887    0.7474148630    4.4829185387
H        0.5262333376   -1.0269822841    4.6369861357
H        1.8301356895   -0.1167696523    3.8549425025
H       -1.7347865395   -0.9662676341    3.5116758629
H       -1.6696452251    0.7849322312    3.1809218226
H       -1.8531744106   -0.3547501564    1.8455962866
29   
torsion grid (75,)
C       -1.8375133415    2.2338356982   -1.1748399273
C       -2.4061846386    0.9605818186   -1.2653580190
C       -0.5724524848    2.3845936010   -0.5928648894
C       -1.7154052101   -0.1523802842   -0.7731061557
C        0.1133013328    1.2709427044   -0.1059458731
C       -0.4503384892   -0.0122177918   -0.1863522666
C        0.5092918369   -1.3266834696    1.8543121960
C        0.2578901564   -2.5154973794   -0.3988905100
C        1.5062806600   -1.6918165094   -0.4423552987
C        0.2951727442   -1.1948209248    0.3613079317
C        0.8260964610   -0.1829897880    3.9398248234
C       -1.3288585961   -0.0738372696    2.8540777722
N        0.1211491571   -0.2321498948    2.6513662465
O        1.1763381724   -2.2530898925    2.3082194165
H       -2.3715089102    3.1005882905   -1.5559233990
H       -3.3871349797    0.8320554660   -1.7161555134
H       -0.1212121681    3.3712108023   -0.5214152548
H       -2.1692519649   -1.1382463872   -0.8358215460
H        1.0910768256    1.3907751091    0.3522167689
H       -0.3582949900   -2.5563840777   -1.2908985671
H        0.2769795939   -3.4144680379    0.2078418666
H        2.3600386166   -2.0338997208    0.1317404205
H        1.7227805840   -1.1362096301   -1.3495199110
H        0.6025148866    0.7796833606    4.4090268819
H        0.5253860760   -0.9922314978    4.6189891244
H        1.9015839796   -0.2599699301    3.7744674983
H       -1.7153537755   -0.8364097182    3.5463033536
H       -1.5280441916    0.9167950771    3.2729467315
H       -1.8631849683   -0.1520607435    1.9074922508
29   
torsion grid (90,)
C       -1.8504670400    2.2012384388   -1.1835029205
C       -2.4259845855    0.9289905826   -1.2467510326
C       -0.5733411049    2.3552606829   -0.6298709356
C       -1.7279733138   -0.1798741533   -0.7561823450
C        0.1186447792    1.2454517185   -0.1417537173
C       -0.4504016753   -0.0354461576   -0.1981574216
C        0.3375486199   -1.4032687146    1.8564724516
C        0.3477345457   -2.5004123780   -0.4596774421
C        1.5832107071   -1.6620166951   -0.3237004655
C        0.2793726223   -1.2227763733    0.3593427837
C        0.8846440362   -0.2133794949    3.8665452120
C       -1.3344538849   -0.0462093237    2.9501202978
N        0.0926178311   -0.2285498128    2.6252924600
O        0.7879664163   -2.4278231621    2.3545508037
H       -2.3891884389    3.0651478169   -1.5645125938
H       -3.4161209986    0.7988218581   -1.6764794363
H       -0.1187490420    3.3416105111   -0.5790488825
H       -2.1802732741   -1.1677653282   -0.8021863065
H        1.1038081152    1.3668706173    0.2995803480
H       -0.1647057666   -2.4974128123   -1.4161361620
H        0.3140648491   -3.4296668404    0.0987549554
H        2.3752914353   -2.0260567991    0.3217837198
H        1.8949424604   -1.0593305706   -1.1712633631
H        0.7663621665    0.7723960467    4.3264945235
H        0.5749465118   -0.9848109547    4.5845386501
H        1.9394030890   -0.3683840247    3.6309810519
H       -1.6921040452   -0.8235825135    3.6420542027
H       -1.4715706893    0.9340111471    3.4156917043
H       -1.9381691551   -0.0741394540    2.0403769628
29   
torsion grid (105,)
C       -1.5525476721    2.0793389284   -0.8987156261
C       -2.2233516634    0.9006828181   -0.5516157492
C       -0.1686095203    2.1608621656   -0.7200945224
C       -1.5130281754   -0.1833180525   -0.0329090720
C        0.5381635879    1.0755826994   -0.1918523161
C       -0.1230753052   -0.1090685992    0.1574806638
C        0.0876462066   -1.7625195685    2.0869660412
C        0.9724140707   -2.4212314095   -0.2306815556
C        2.0509331809   -1.5790965737    0.3929318477
C        0.5855892351   -1.3073254059    0.7211229253
C        0.8364983839    0.3503539123    3.1153781318
C       -1.4500082426   -0.4130215081    3.4085873649
N       -0.0675021511   -0.8009553061    3.1085046228
O       -0.3148879776   -2.9064153491    2.2610171664
H       -2.1029196604    2.9234982372   -1.3059607604
H       -3.2988907037    0.8249544014   -0.6903811081
H        0.3617885986    3.0719363113   -0.9856851438
H       -2.0349563141   -1.1022226867    0.2242093553
H        1.6107597460    1.1578422024   -0.0402408245
H        0.7482812330   -2.2551649617   -1.2796357968
H        0.8276121079   -3.4333471402    0.1310366706
H        2.6596850647   -2.0287039967    1.1719897775
H        2.5745073441   -0.8627997222   -0.2327016395
H        0.4852136471    1.1845946658    2.4928908965
H        0.9274089326    0.7083932695    4.1470363478
H        1.8303509463    0.0537372662    2.7758612660
H       -1.5118878595   -0.0267855387    4.4318919477
H       -1.8033133721    0.3634983169    2.7150219210
H       -2.0965873766   -1.2890406077    3.3353474217
29   
torsion grid (120,)
C       -1.4866167047    2.1313310760   -0.9543916310
C       -2.1837469061    1.0025332004   -0.5077240980
C       -0.0923646827    2.1585512415   -0.8602866976
C       -1.4890697690   -0.0857597487    0.0229092179
C        0.5991769656    1.0703851584   -0.3177202171
C       -0.0876998166   -0.0662416318    0.1281037481
C        0.0296460064   -1.7211975915    2.0505951485
C        1.0136170628   -2.3847516308   -0.2229363938
C        2.0729901228   -1.5533037154    0.4467468410
C        0.5992812993   -1.2668308998    0.7126569354
C        0.6969119569    0.4516307790    3.0365122788
C       -1.4613522183   -0.5434525046    3.5712537591
N       -0.1064408949   -0.7686692441    3.0633190247
O       -0.4347453373   -2.8498379301    2.1916357779
H       -2.0245851298    2.9787659910   -1.3712387397
H       -3.2679901926    0.9681923706   -0.5794020335
H        0.4589117502    3.0314223714   -1.2011336022
H       -2.0333964190   -0.9670985795    0.3540850657
H        1.6806795158    1.1176487242   -0.2281953999
H        0.8350338678   -2.2159972202   -1.2800919077
H        0.8399351350   -3.3947347714    0.1322488596
H        2.6412620999   -2.0078409902    1.2530826634
H        2.6346176193   -0.8468932972   -0.1565654483
H        0.2151751933    1.2685891863    2.4827564917
H        0.8566614613    0.7822500620    4.0689346352
H        1.6726485934    0.2552011179    2.5913748533
H       -1.4243843980   -0.2120365668    4.6146318025
H       -1.9702228752    0.2271805041    2.9738412012
H       -2.0233267285   -1.4763639258    3.5243258100
29   
torsion grid (135,)
C       -1.4285784703    2.1686982488   -1.0403962528
C       -2.1475646980    1.0863486250   -0.5193873415
C       -0.0320328814    2.1476280328   -0.9942853816
C       -1.4755060999   -0.0034179304    0.0365209647
C        0.6384082306    1.0589757487   -0.4263719007
C       -0.0710943161   -0.0314057647    0.0933214791
C       -0.0324969150   -1.6847255347    2.0195858722
C        1.0460414853   -2.3507375297   -0.2079149125
C        2.0757675159   -1.5218309605    0.5103190096
C        0.5928283339   -1.2306323141    0.7068592743
C        0.5745114909    0.5239600878    2.9914577134
C       -1.4143346504   -0.6744763356    3.7550737445
N       -0.1478692821   -0.7429484314    3.0293115088
O       -0.5232512055   -2.8076157399    2.1374487684
H       -1.9507966863    3.0165839281   -1.4759400962
H       -3.2342109964    1.0892751190   -0.5525554886
H        0.5383223439    2.9835246034   -1.3917958965
H       -2.0404350414   -0.8472473359    0.4257982166
H        1.7232862711    1.0730653791   -0.3762354381
H        0.9166668025   -2.1816943803   -1.2721386029
H        0.8513867990   -3.3597778867    0.1391178661
H        2.6019006808   -1.9771840086    1.3443586387
H        2.6717510682   -0.8214328332   -0.0662769229
H       -0.0003312296    1.3211619680    2.5016098026
H        0.7881085305    0.8323249285    4.0209097955
H        1.5239531026    0.4072702037    2.4700418081
H       -1.2409700189   -0.4285348281    4.8084839006
H       -2.0584296327    0.1006995848    3.3150347663
H       -1.9118739294   -1.6419802155    3.6986825414
29   
torsion grid (150,)
C       -1.3982368587    2.1757649477   -1.1240303046
C       -2.1407285903    1.1152464790   -0.5913926136
C       -0.0031326640    2.1355460593   -1.0543669656
C       -1.4919327338    0.0291346701   -0.0016373274
C        0.6442053319    1.0505471172   -0.4534714718
C       -0.0891286649   -0.0184954230    0.0776077333
C       -0.1240175045   -1.6725607305    2.0098641309
C        1.0349873669   -2.3381805325   -0.1745292451
C        2.0367838636   -1.5117108174    0.5869211241
C        0.5487673364   -1.2169304202    0.7210249655
C        0.4786926711    0.5381638803    2.9995404104
C       -1.3181787836   -0.8302159821    3.9638062884
N       -0.1967796014   -0.7529406949    3.0331578609
O       -0.6448250870   -2.7864541412    2.1013374275
H       -1.9011009172    3.0213382212   -1.5860753838
H       -3.2266259479    1.1323576740   -0.6414311532
H        0.5852185865    2.9546168684   -1.4605880640
H       -2.0747702102   -0.7972746027    0.3982869991
H        1.7284772024    1.0510765028   -0.3891792525
H        0.9511795573   -2.1690995463   -1.2433012447
H        0.8236713068   -3.3470146756    0.1632500601
H        2.5254277544   -1.9686570057    1.4426810223
H        2.6601488989   -0.8146480154    0.0357742167
H       -0.1550967203    1.3274767591    2.5743179945
H        0.7445819989    0.8191513894    4.0243841829
H        1.3965273283    0.4768235834    2.4170535522
H       -0.9735329971   -0.6934618794    4.9950987487
H       -2.0520427299   -0.0450650939    3.7340363343
H       -1.7875973774   -1.8085867428    3.8737241177
29   
torsion grid (165,)
C       -1.3761879583    2.1689581805   -1.2141635346
C       -2.1395590556    1.1269412078   -0.6745890693
C        0.0175244115    2.1073754624   -1.1343921435
C       -1.5139121067    0.0369735150   -0.0672773606
C        0.6411603662    1.0179239012   -0.5167655281
C       -0.1127988436   -0.0331424065    0.0220373609
C       -0.1962406722   -1.7129567149    1.9443763637
C        1.0144676443   -2.3490183297   -0.2185148373
C        1.9927837993   -1.5362863944    0.5869850294
C        0.5029158535   -1.2372492164    0.6765562343
C        0.3620690046    0.4977216409    2.9748954010
C       -1.1952933064   -1.0653557245    4.0779859165
N       -0.2732052134   -0.8131332768    2.9775329995
O       -0.6909435028   -2.8412982378    2.0210565557
H       -1.8620871960    3.0171355020   -1.6893731293
H       -3.2246653704    1.1615636011   -0.7323261551
H        0.6225546161    2.9116351361   -1.5457775166
H       -2.1139263823   -0.7738006208    0.3390365912
H        1.7250030292    1.0008949135   -0.4471515840
H        0.9649625689   -2.1633264493   -1.2866351887
H        0.7891040938   -3.3613014370    0.0988805428
H        2.4484814063   -2.0066322821    1.4537011214
H        2.6389157563   -0.8346898507    0.0687802302
H       -0.3240035635    1.2855507251    2.6382123201
H        0.6888951973    0.7313262942    3.9939475484
H        1.2386821237    0.5023731189    2.3299091287
H       -0.6615198174   -1.0779371970    5.0361215777
H       -1.9590411979   -0.2776036719    4.1160534077
H       -1.6731288476   -2.0314908351    3.9243362109
29   
torsion grid (180,)
C       -1.3437790658    2.2042562845   -1.3466304732
C       -2.1278573403    1.1994893083   -0.7680730079
C        0.0487847419    2.1077295076   -1.2819996958
C       -1.5225670563    0.1118464500   -0.1364558290
C        0.6516891500    1.0202211743   -0.6411620785
C       -0.1229802119    0.0058086759   -0.0616971786
C       -0.2548807495   -1.6864976118    1.8601110105
C        1.0138870690   -2.3049715609   -0.2739367026
C        1.9620696327   -1.4998583996    0.5740695632
C        0.4706177416   -1.1990475630    0.6114607253
C        0.2616404272    0.5223280934    2.9241597470
C       -1.0376340509   -1.2053152753    4.1217096599
N       -0.3548376481   -0.7982622087    2.8996064806
O       -0.7116093433   -2.8315002941    1.9318303421
H       -1.8129683383    3.0512004296   -1.8403841932
H       -3.2123783353    1.2610744277   -0.8133731171
H        0.6695874821    2.8830710988   -1.7242619240
H       -2.1395946299   -0.6690608014    0.3012632999
H        1.7356450218    0.9761794334   -0.5877694570
H        1.0017309946   -2.1089711429   -1.3412794547
H        0.7777225716   -3.3196286063    0.0272090133
H        2.3815867363   -1.9790421295    1.4542266307
H        2.6302696057   -0.7945723355    0.0901393491
H       -0.4636130800    1.3115301172    2.6902509167
H        0.6664374210    0.7060429727    3.9253402221
H        1.0818713806    0.5862811443    2.2125038911
H       -0.3202832199   -1.3300710039    4.9433308660
H       -1.7708160004   -0.4437462230    4.4129085544
H       -1.5450534449   -2.1522743734    3.9459441949
