
  -OEChem-05262117483D

 38 40  0     1  0  0  0  0  0999 V2000
    3.1644    0.4136    1.5959 C   0  0  0  0  0  0  0  0  0  0  0  0
    2.8278   -0.9096    1.9119 C   0  0  0  0  0  0  0  0  0  0  0  0
    2.2296    1.2165    0.9435 C   0  0  0  0  0  0  0  0  0  0  0  0
    1.5729   -1.4085    1.5721 C   0  0  0  0  0  0  0  0  0  0  0  0
    0.9597    0.7374    0.5844 C   0  0  0  0  0  0  0  0  0  0  0  0
    0.6408   -0.5925    0.9126 C   0  0  0  0  0  0  0  0  0  0  0  0
   -0.8361    5.4612   -2.4495 C   0  0  0  0  0  0  0  0  0  0  0  0
    0.3495    5.2947   -1.5119 C   0  0  0  0  0  0  0  0  0  0  0  0
   -1.4390    0.9836   -0.1195 C   0  0  0  0  0  0  0  0  0  0  0  0
   -0.0498    1.6395   -0.0979 C   0  0  2  0  0  0  0  0  0  0  0  0
   -0.7459    4.2400   -1.5784 C   0  0  0  0  0  0  0  0  0  0  0  0
   -1.4196   -0.5336   -0.3484 C   0  0  0  0  0  0  0  0  0  0  0  0
   -2.8101   -1.1198   -0.1100 C   0  0  0  0  0  0  0  0  0  0  0  0
   -0.8987   -0.9499   -1.7314 C   0  0  0  0  0  0  0  0  0  0  0  0
    0.4524    2.1027   -1.4863 C   0  0  0  0  0  0  0  0  0  0  0  0
   -0.5313    2.9425   -2.1758 N   0  0  0  0  0  0  0  0  0  0  0  0
   -0.5790   -1.1637    0.6585 O   0  0  0  0  0  0  0  0  0  0  0  0
    4.1389    0.8134    1.8624 H   0  0  0  0  0  0  0  0  0  0  0  0
    3.5415   -1.5505    2.4234 H   0  0  0  0  0  0  0  0  0  0  0  0
    2.4795    2.2511    0.7168 H   0  0  0  0  0  0  0  0  0  0  0  0
    1.2862   -2.4293    1.8091 H   0  0  0  0  0  0  0  0  0  0  0  0
   -1.5872    6.2097   -2.2147 H   0  0  0  0  0  0  0  0  0  0  0  0
   -0.6527    5.3364   -3.5143 H   0  0  0  0  0  0  0  0  0  0  0  0
    1.3071    5.0492   -1.9633 H   0  0  0  0  0  0  0  0  0  0  0  0
    0.4118    5.9344   -0.6357 H   0  0  0  0  0  0  0  0  0  0  0  0
   -1.9207    1.1551    0.8495 H   0  0  0  0  0  0  0  0  0  0  0  0
   -2.0561    1.4607   -0.8855 H   0  0  0  0  0  0  0  0  0  0  0  0
   -0.1334    2.5486    0.5107 H   0  0  0  0  0  0  0  0  0  0  0  0
   -1.4275    4.2150   -0.7306 H   0  0  0  0  0  0  0  0  0  0  0  0
   -2.7803   -2.2110   -0.1838 H   0  0  0  0  0  0  0  0  0  0  0  0
   -3.5143   -0.7398   -0.8568 H   0  0  0  0  0  0  0  0  0  0  0  0
   -3.1764   -0.8515    0.8852 H   0  0  0  0  0  0  0  0  0  0  0  0
   -1.0604   -2.0215   -1.8820 H   0  0  0  0  0  0  0  0  0  0  0  0
    0.1727   -0.7619   -1.8260 H   0  0  0  0  0  0  0  0  0  0  0  0
   -1.4180   -0.4009   -2.5231 H   0  0  0  0  0  0  0  0  0  0  0  0
    0.6542    1.2386   -2.1223 H   0  0  0  0  0  0  0  0  0  0  0  0
    1.4119    2.6244   -1.3399 H   0  0  0  0  0  0  0  0  0  0  0  0
   -0.2733    3.0445   -3.1531 H   0  0  0  0  0  0  0  0  0  0  0  0
  1  2  1  0  0  0  0
  1  3  2  0  0  0  0
  1 18  1  0  0  0  0
  2  4  2  0  0  0  0
  2 19  1  0  0  0  0
  3  5  1  0  0  0  0
  3 20  1  0  0  0  0
  4  6  1  0  0  0  0
  4 21  1  0  0  0  0
  5  6  2  0  0  0  0
  5 10  1  0  0  0  0
  6 17  1  0  0  0  0
  7  8  1  0  0  0  0
  7 11  1  0  0  0  0
  7 22  1  0  0  0  0
  7 23  1  0  0  0  0
  8 11  1  0  0  0  0
  8 24  1  0  0  0  0
  8 25  1  0  0  0  0
  9 10  1  0  0  0  0
  9 12  1  0  0  0  0
  9 26  1  0  0  0  0
  9 27  1  0  0  0  0
 10 15  1  0  0  0  0
 10 28  1  0  0  0  0
 11 16  1  0  0  0  0
 11 29  1  0  0  0  0
 12 13  1  0  0  0  0
 12 14  1  0  0  0  0
 12 17  1  0  0  0  0
 13 30  1  0  0  0  0
 13 31  1  0  0  0  0
 13 32  1  0  0  0  0
 14 33  1  0  0  0  0
 14 34  1  0  0  0  0
 14 35  1  0  0  0  0
 15 16  1  0  0  0  0
 15 36  1  0  0  0  0
 15 37  1  0  0  0  0
 16 38  1  0  0  0  0
M  END
$$$$
