
  -OEChem-05262117483D

 56 60  0     0  0  0  0  0  0999 V2000
   -1.9302    2.1912    0.7952 C   0  0  0  0  0  0  0  0  0  0  0  0
   -1.7873    1.0157    0.0300 C   0  0  0  0  0  0  0  0  0  0  0  0
   -5.3058   -3.3838   -1.6506 C   0  0  0  0  0  0  0  0  0  0  0  0
   -2.6826    2.2002    1.9719 C   0  0  0  0  0  0  0  0  0  0  0  0
   -4.6938    1.0865    5.9506 C   0  0  0  0  0  0  0  0  0  0  0  0
   -4.9200    2.8804    4.3655 C   0  0  0  0  0  0  0  0  0  0  0  0
   -4.3817   -3.2437   -0.6044 C   0  0  0  0  0  0  0  0  0  0  0  0
   -2.3821   -0.1804    0.4426 C   0  0  0  0  0  0  0  0  0  0  0  0
   -6.6389   -3.0199   -1.4731 C   0  0  0  0  0  0  0  0  0  0  0  0
   -5.1340    1.9325    6.9743 C   0  0  0  0  0  0  0  0  0  0  0  0
   -5.3493    3.7344    5.3789 C   0  0  0  0  0  0  0  0  0  0  0  0
   -6.1435   -2.3676    0.8164 C   0  0  0  0  0  0  0  0  0  0  0  0
   -3.3115    1.0167    2.4026 C   0  0  0  0  0  0  0  0  0  0  0  0
   -4.5759    1.5363    4.6234 C   0  0  0  0  0  0  0  0  0  0  0  0
   -4.1180    0.6477    3.5465 C   0  0  0  0  0  0  0  0  0  0  0  0
   -4.8043   -2.7355    0.6262 C   0  0  0  0  0  0  0  0  0  0  0  0
   -3.1256   -0.1668    1.6255 C   0  0  0  0  0  0  0  0  0  0  0  0
   -5.4587    3.2654    6.6941 C   0  0  0  0  0  0  0  0  0  0  0  0
   -7.0565   -2.5108   -0.2301 C   0  0  0  0  0  0  0  0  0  0  0  0
   -4.3786   -0.7138    3.4330 C   0  0  0  0  0  0  0  0  0  0  0  0
   -5.2142   -1.6534    4.3098 C   0  0  0  0  0  0  0  0  0  0  0  0
   -7.3357    4.5834   11.0599 C   0  0  0  0  0  0  0  0  0  0  0  0
   -8.0041    5.1975    9.8456 C   0  0  0  0  0  0  0  0  0  0  0  0
   -6.5286    4.8786    9.8134 C   0  0  0  0  0  0  0  0  0  0  0  0
   -8.8098   -1.6473    1.1375 C   0  0  0  0  0  0  0  0  0  0  0  0
   -3.8445   -2.5686    1.7917 C   0  0  0  0  0  0  0  0  0  0  0  0
   -6.0354    3.7299    8.9750 C   0  0  0  0  0  0  0  0  0  0  0  0
   -3.7740   -1.1997    2.2802 N   0  0  0  0  0  0  0  0  0  0  0  0
   -4.6438   -2.0761    5.3459 O   0  5  0  0  0  0  0  0  0  0  0  0
   -6.3682   -1.9049    3.8634 O   0  0  0  0  0  0  0  0  0  0  0  0
   -8.3848   -2.1845   -0.1210 O   0  0  0  0  0  0  0  0  0  0  0  0
   -5.9002    4.1822    7.6323 O   0  0  0  0  0  0  0  0  0  0  0  0
   -1.4457    3.1070    0.4622 H   0  0  0  0  0  0  0  0  0  0  0  0
   -1.2092    1.0373   -0.8912 H   0  0  0  0  0  0  0  0  0  0  0  0
   -4.9819   -3.7741   -2.6133 H   0  0  0  0  0  0  0  0  0  0  0  0
   -2.7647    3.1127    2.5558 H   0  0  0  0  0  0  0  0  0  0  0  0
   -4.4457    0.0538    6.1785 H   0  0  0  0  0  0  0  0  0  0  0  0
   -4.8832    3.2531    3.3461 H   0  0  0  0  0  0  0  0  0  0  0  0
   -3.3404   -3.5239   -0.7519 H   0  0  0  0  0  0  0  0  0  0  0  0
   -2.2799   -1.0857   -0.1489 H   0  0  0  0  0  0  0  0  0  0  0  0
   -7.3667   -3.1193   -2.2741 H   0  0  0  0  0  0  0  0  0  0  0  0
   -5.2137    1.5324    7.9796 H   0  0  0  0  0  0  0  0  0  0  0  0
   -5.6208    4.7655    5.1665 H   0  0  0  0  0  0  0  0  0  0  0  0
   -6.4345   -2.0008    1.7990 H   0  0  0  0  0  0  0  0  0  0  0  0
   -7.1756    5.2091   11.9335 H   0  0  0  0  0  0  0  0  0  0  0  0
   -7.5551    3.5435   11.2882 H   0  0  0  0  0  0  0  0  0  0  0  0
   -8.6617    4.5678    9.2529 H   0  0  0  0  0  0  0  0  0  0  0  0
   -8.3023    6.2408    9.8949 H   0  0  0  0  0  0  0  0  0  0  0  0
   -5.8484    5.7257    9.8620 H   0  0  0  0  0  0  0  0  0  0  0  0
   -9.8807   -1.4622    1.0304 H   0  0  0  0  0  0  0  0  0  0  0  0
   -8.2910   -0.7096    1.3646 H   0  0  0  0  0  0  0  0  0  0  0  0
   -8.6293   -2.3488    1.9582 H   0  0  0  0  0  0  0  0  0  0  0  0
   -4.1582   -3.1954    2.6293 H   0  0  0  0  0  0  0  0  0  0  0  0
   -2.8379   -2.8884    1.4992 H   0  0  0  0  0  0  0  0  0  0  0  0
   -6.7471    2.8926    9.0250 H   0  0  0  0  0  0  0  0  0  0  0  0
   -5.0671    3.3687    9.3509 H   0  0  0  0  0  0  0  0  0  0  0  0
  1  2  1  0  0  0  0
  1  4  2  0  0  0  0
  1 33  1  0  0  0  0
  2  8  2  0  0  0  0
  2 34  1  0  0  0  0
  3  7  2  0  0  0  0
  3  9  1  0  0  0  0
  3 35  1  0  0  0  0
  4 13  1  0  0  0  0
  4 36  1  0  0  0  0
  5 10  2  0  0  0  0
  5 14  1  0  0  0  0
  5 37  1  0  0  0  0
  6 11  1  0  0  0  0
  6 14  2  0  0  0  0
  6 38  1  0  0  0  0
  7 16  1  0  0  0  0
  7 39  1  0  0  0  0
  8 17  1  0  0  0  0
  8 40  1  0  0  0  0
  9 19  2  0  0  0  0
  9 41  1  0  0  0  0
 10 18  1  0  0  0  0
 10 42  1  0  0  0  0
 11 18  2  0  0  0  0
 11 43  1  0  0  0  0
 12 16  2  0  0  0  0
 12 19  1  0  0  0  0
 12 44  1  0  0  0  0
 13 15  1  0  0  0  0
 13 17  2  0  0  0  0
 14 15  1  0  0  0  0
 15 20  2  0  0  0  0
 16 26  1  0  0  0  0
 17 28  1  0  0  0  0
 18 32  1  0  0  0  0
 19 31  1  0  0  0  0
 20 21  1  0  0  0  0
 20 28  1  0  0  0  0
 21 29  1  0  0  0  0
 21 30  2  0  0  0  0
 22 23  1  0  0  0  0
 22 24  1  0  0  0  0
 22 45  1  0  0  0  0
 22 46  1  0  0  0  0
 23 24  1  0  0  0  0
 23 47  1  0  0  0  0
 23 48  1  0  0  0  0
 24 27  1  0  0  0  0
 24 49  1  0  0  0  0
 25 31  1  0  0  0  0
 25 50  1  0  0  0  0
 25 51  1  0  0  0  0
 25 52  1  0  0  0  0
 26 28  1  0  0  0  0
 26 53  1  0  0  0  0
 26 54  1  0  0  0  0
 27 32  1  0  0  0  0
 27 55  1  0  0  0  0
 27 56  1  0  0  0  0
M  CHG  1  29  -1
M  END
$$$$
