56
-1 1 C27H24NO4
C                    -0.510517771334     0.900873701784     1.404469131397
C                    -0.703295589819    -0.300294366657     0.689895420525
C                    -7.837995898168    -1.694747565192    -0.136661184137
C                    -1.436035388113     1.324920498410     2.359124615965
C                    -2.812331140690     2.259610105652     5.190426622071
C                    -5.158969349401     2.391109525940     4.684809201045
C                    -6.931795525040    -2.046190333037     0.871896301693
C                    -1.837843226705    -1.085822687403     0.908103913515
C                    -7.395198072215    -1.365585697967    -1.416468923163
C                    -2.937700688588     3.304350755318     6.103434780638
C                    -5.297717285659     3.438182296615     5.603038274890
C                    -5.108502851259    -1.735513514799    -0.697405741629
C                    -2.579980100989     0.544627931072     2.615498739958
C                    -3.915273658085     1.780491794378     4.451148045573
C                    -3.735871978957     0.693464853105     3.471852953512
C                    -5.563442516017    -2.072912824365     0.588874591407
C                    -2.765809050099    -0.656624964477     1.865374565400
C                    -4.185137472280     3.905432740002     6.312742639947
C                    -6.020123263758    -1.377804955398    -1.694557103731
C                    -4.572481098501    -0.393105820993     3.215871420801
C                    -5.931995974964    -0.801937492203     3.803857317292
C                    -6.251724782149     7.743645665297     8.631336292738
C                    -4.824953979927     7.957866532832     8.165359975780
C                    -5.286147154038     6.579240294404     8.573812105220
C                    -4.270912949380    -0.904304865651    -3.253514034215
C                    -4.563458785813    -2.408827416141     1.679310778027
C                    -5.481955094149     5.519712359098     7.522537185941
N                    -3.961944108798    -1.213872597250     2.267382697565
O                    -6.005669455012    -2.003625011578     4.185692256376
O                    -6.825032244752     0.082763744382     3.796079449482
O                    -5.660239643143    -1.021614526037    -2.978491424855
O                    -4.215217794097     4.938972983579     7.233086454096
H                     0.370187817470     1.507325014787     1.203005784475
H                     0.034499411910    -0.617041519557    -0.044225308035
H                    -8.902072317979    -1.661576123492     0.084968243724
H                    -1.282456863644     2.262947139477     2.885136516107
H                    -1.844119400718     1.782100329054     5.070718058512
H                    -6.026968880076     2.005072787509     4.159433361327
H                    -7.272983373011    -2.261207485272     1.880231967021
H                    -1.984663142174    -2.005145030782     0.346882874280
H                    -8.087456179026    -1.081458610572    -2.204626355044
H                    -2.082288447511     3.658139296945     6.673659050432
H                    -6.281818449816     3.870789201386     5.750651548709
H                    -4.041882787724    -1.733241672365    -0.890859901507
H                    -6.538887076563     8.122657422795     9.608120640022
H                    -7.041426649471     7.785551272111     7.885478768194
H                    -4.655339327475     8.131593934691     7.106378966289
H                    -4.142170304231     8.486802443986     8.824113888969
H                    -4.914974061519     6.205908338786     9.525297246784
H                    -4.196579056173    -0.552397660136    -4.284850857972
H                    -3.758082229127    -1.871687035677    -3.165724000641
H                    -3.786899383775    -0.181548942663    -2.584986641287
H                    -5.051491256537    -2.950135781527     2.490191460342
H                    -3.750564578919    -3.021158882807     1.279011131528
H                    -5.914301373852     5.965964849678     6.614415312151
H                    -6.177879139588     4.747106085453     7.879448285869
