45
0 1 C17FH20N3O4
C                     1.218326216156     4.255382831230     0.193431907976
C                    -1.065833441612     4.511764734127     0.972007618064
C                     1.407946275472     5.637968077209     0.316320704861
C                    -0.880499082689     5.886925089372     1.095096533895
C                    -0.253289306610     0.727252669837    -4.065972696514
C                    -1.597229010775     1.562941359709    -2.679196435819
C                    -0.019829931700     3.691853065909     0.522953308782
C                     0.359739816708     6.429312558219     0.763902700266
C                    -0.853253473230     0.355471298698     2.399787698813
C                     1.173017809373    -1.144044134690     2.106242971603
C                    -0.033641245228    -1.960643931460     1.722843324300
C                    -0.006302796918    -0.460339796482     1.454243402247
C                    -4.185584812235     1.744203398364     1.916779776288
C                    -1.165353592953    -0.070885091864    -0.778591527195
C                    -2.949618812435     1.422319617531     2.736767386728
C                     0.713349263599     1.466317665121    -0.020028082107
C                     0.161439065635     0.030149120146     0.004722742560
N                    -1.135754891191     1.752848587621    -3.911037795601
N                    -0.150106275284    -0.080343727038    -3.012809614738
N                    -1.032529054721     0.467714203711    -2.125657382774
O                    -0.492315477606     0.737286769353     3.496774755336
O                     1.150238058689    -0.801141117543    -0.600665114753
O                    -0.309202975039     2.352903407589     0.433672784093
O                    -2.105326098001     0.566635120071     1.926415542950
F                     0.544339513616     7.771892324578     0.882679287506
H                     2.038844787134     3.640803197518    -0.157410587700
H                    -2.019368832653     4.056316122604     1.220846073365
H                     2.360148907249     6.095524867239     0.066383550669
H                    -1.678748633076     6.535843841926     1.441973698353
H                     0.323981476338     0.563921171245    -4.966832533855
H                    -2.318011208602     2.178992534700    -2.157829669107
H                     1.330808462729    -0.919590292259     3.154910550097
H                     2.061822169631    -1.266101250212     1.499813301948
H                     0.054508697643    -2.607245401133     0.855952488675
H                    -0.693658494922    -2.315756860767     2.508700544557
H                    -3.916816823500     2.274598695596     0.997478928087
H                    -4.726452701095     0.832915076315     1.644564912414
H                    -4.859542372985     2.383049013999     2.496418701338
H                    -1.456675416038    -1.121824380497    -0.842537497128
H                    -1.949840715203     0.486520801938    -0.275980234900
H                    -3.196292737148     0.894715110948     3.662751721932
H                    -2.383944000832     2.318682078303     3.002271246383
H                     1.591558141406     1.514334977671     0.632980432395
H                     1.014507321549     1.726657321420    -1.041744390089
H                     1.021628739737    -0.763284986416    -1.572382569077
