
  -OEChem-05262117483D

 56 60  0     0  0  0  0  0  0999 V2000
    1.5836   -0.0475    1.0372 C   0  0  0  0  0  0  0  0  0  0  0  0
    1.5395   -1.3222    0.4351 C   0  0  0  0  0  0  0  0  0  0  0  0
   -3.1780   -4.6220   -1.3554 C   0  0  0  0  0  0  0  0  0  0  0  0
    0.7219    0.2867    2.0838 C   0  0  0  0  0  0  0  0  0  0  0  0
   -0.5698    1.2808    4.9745 C   0  0  0  0  0  0  0  0  0  0  0  0
   -2.9103    0.7556    4.8113 C   0  0  0  0  0  0  0  0  0  0  0  0
   -2.2884   -4.6754   -0.2720 C   0  0  0  0  0  0  0  0  0  0  0  0
    0.6220   -2.2834    0.8674 C   0  0  0  0  0  0  0  0  0  0  0  0
   -4.3486   -3.8712   -1.2769 C   0  0  0  0  0  0  0  0  0  0  0  0
   -0.8586    2.3558    5.8118 C   0  0  0  0  0  0  0  0  0  0  0  0
   -3.2113    1.8282    5.6582 C   0  0  0  0  0  0  0  0  0  0  0  0
   -3.7569   -3.2158    0.9879 C   0  0  0  0  0  0  0  0  0  0  0  0
   -0.2027   -0.6660    2.5529 C   0  0  0  0  0  0  0  0  0  0  0  0
   -1.5861    0.4565    4.4456 C   0  0  0  0  0  0  0  0  0  0  0  0
   -1.2578   -0.6597    3.5445 C   0  0  0  0  0  0  0  0  0  0  0  0
   -2.5793   -3.9732    0.9004 C   0  0  0  0  0  0  0  0  0  0  0  0
   -0.2302   -1.9470    1.9235 C   0  0  0  0  0  0  0  0  0  0  0  0
   -2.1857    2.6400    6.1574 C   0  0  0  0  0  0  0  0  0  0  0  0
   -4.6364   -3.1633   -0.0961 C   0  0  0  0  0  0  0  0  0  0  0  0
   -1.8699   -1.9088    3.4883 C   0  0  0  0  0  0  0  0  0  0  0  0
   -3.0569   -2.5069    4.2529 C   0  0  0  0  0  0  0  0  0  0  0  0
   -4.9006    6.0842    8.4231 C   0  0  0  0  0  0  0  0  0  0  0  0
   -3.6443    6.5900    7.7416 C   0  0  0  0  0  0  0  0  0  0  0  0
   -3.6770    5.1982    8.3265 C   0  0  0  0  0  0  0  0  0  0  0  0
   -6.0903   -1.7001    1.1069 C   0  0  0  0  0  0  0  0  0  0  0  0
   -1.6473   -4.0132    2.0999 C   0  0  0  0  0  0  0  0  0  0  0  0
   -3.7096    4.0069    7.4068 C   0  0  0  0  0  0  0  0  0  0  0  0
   -1.2256   -2.6879    2.5318 N   0  0  0  0  0  0  0  0  0  0  0  0
   -2.7910   -3.5008    4.9702 O   0  5  0  0  0  0  0  0  0  0  0  0
   -4.1742   -1.9618    4.0117 O   0  0  0  0  0  0  0  0  0  0  0  0
   -5.8058   -2.4482   -0.0834 O   0  0  0  0  0  0  0  0  0  0  0  0
   -2.3776    3.7297    6.9886 O   0  0  0  0  0  0  0  0  0  0  0  0
    2.2930    0.6916    0.6704 H   0  0  0  0  0  0  0  0  0  0  0  0
    2.2146   -1.5557   -0.3853 H   0  0  0  0  0  0  0  0  0  0  0  0
   -2.9517   -5.1648   -2.2709 H   0  0  0  0  0  0  0  0  0  0  0  0
    0.7520    1.2843    2.5127 H   0  0  0  0  0  0  0  0  0  0  0  0
    0.4686    1.0541    4.7519 H   0  0  0  0  0  0  0  0  0  0  0  0
   -3.7083    0.1212    4.4366 H   0  0  0  0  0  0  0  0  0  0  0  0
   -1.3713   -5.2565   -0.3455 H   0  0  0  0  0  0  0  0  0  0  0  0
    0.5617   -3.2529    0.3806 H   0  0  0  0  0  0  0  0  0  0  0  0
   -5.0461   -3.8156   -2.1086 H   0  0  0  0  0  0  0  0  0  0  0  0
   -0.0663    2.9789    6.2193 H   0  0  0  0  0  0  0  0  0  0  0  0
   -4.2498    2.0122    5.9136 H   0  0  0  0  0  0  0  0  0  0  0  0
   -3.9758   -2.6801    1.9062 H   0  0  0  0  0  0  0  0  0  0  0  0
   -5.1616    6.4926    9.3954 H   0  0  0  0  0  0  0  0  0  0  0  0
   -5.7549    5.8397    7.7968 H   0  0  0  0  0  0  0  0  0  0  0  0
   -3.6505    6.6745    6.6585 H   0  0  0  0  0  0  0  0  0  0  0  0
   -3.0523    7.3458    8.2495 H   0  0  0  0  0  0  0  0  0  0  0  0
   -3.1124    5.0438    9.2429 H   0  0  0  0  0  0  0  0  0  0  0  0
   -7.0495   -1.2122    0.9217 H   0  0  0  0  0  0  0  0  0  0  0  0
   -5.3186   -0.9469    1.2977 H   0  0  0  0  0  0  0  0  0  0  0  0
   -6.1600   -2.3470    1.9870 H   0  0  0  0  0  0  0  0  0  0  0  0
   -2.1360   -4.4831    2.9570 H   0  0  0  0  0  0  0  0  0  0  0  0
   -0.7541   -4.5999    1.8637 H   0  0  0  0  0  0  0  0  0  0  0  0
   -4.3465    4.2213    6.5355 H   0  0  0  0  0  0  0  0  0  0  0  0
   -4.1320    3.1331    7.9233 H   0  0  0  0  0  0  0  0  0  0  0  0
  1  2  1  0  0  0  0
  1  4  2  0  0  0  0
  1 33  1  0  0  0  0
  2  8  2  0  0  0  0
  2 34  1  0  0  0  0
  3  7  2  0  0  0  0
  3  9  1  0  0  0  0
  3 35  1  0  0  0  0
  4 13  1  0  0  0  0
  4 36  1  0  0  0  0
  5 10  2  0  0  0  0
  5 14  1  0  0  0  0
  5 37  1  0  0  0  0
  6 11  1  0  0  0  0
  6 14  2  0  0  0  0
  6 38  1  0  0  0  0
  7 16  1  0  0  0  0
  7 39  1  0  0  0  0
  8 17  1  0  0  0  0
  8 40  1  0  0  0  0
  9 19  2  0  0  0  0
  9 41  1  0  0  0  0
 10 18  1  0  0  0  0
 10 42  1  0  0  0  0
 11 18  2  0  0  0  0
 11 43  1  0  0  0  0
 12 16  2  0  0  0  0
 12 19  1  0  0  0  0
 12 44  1  0  0  0  0
 13 15  1  0  0  0  0
 13 17  2  0  0  0  0
 14 15  1  0  0  0  0
 15 20  2  0  0  0  0
 16 26  1  0  0  0  0
 17 28  1  0  0  0  0
 18 32  1  0  0  0  0
 19 31  1  0  0  0  0
 20 21  1  0  0  0  0
 20 28  1  0  0  0  0
 21 29  1  0  0  0  0
 21 30  2  0  0  0  0
 22 23  1  0  0  0  0
 22 24  1  0  0  0  0
 22 45  1  0  0  0  0
 22 46  1  0  0  0  0
 23 24  1  0  0  0  0
 23 47  1  0  0  0  0
 23 48  1  0  0  0  0
 24 27  1  0  0  0  0
 24 49  1  0  0  0  0
 25 31  1  0  0  0  0
 25 50  1  0  0  0  0
 25 51  1  0  0  0  0
 25 52  1  0  0  0  0
 26 28  1  0  0  0  0
 26 53  1  0  0  0  0
 26 54  1  0  0  0  0
 27 32  1  0  0  0  0
 27 55  1  0  0  0  0
 27 56  1  0  0  0  0
M  CHG  1  29  -1
M  END
$$$$
