14   
torsion grid (-45,)
C        0.2109605062   -3.2829665031    0.8617191550
C        0.4456963782   -2.0803465629    0.2039343293
C        0.8966257000   -0.7827362019    0.8260927173
N       -0.4081804816   -4.1844468325    0.0075545074
N        0.0522691033   -4.1169746056   -1.1707914921
N        1.9602858319    0.2956750941   -1.0233567732
N        2.1388403777   -0.2102333056    0.3049103160
S        0.1396001762   -2.3255978529   -1.5093552561
H        0.1707076256   -3.4489131955    1.9326294275
H        0.1190247502   -0.0231278170    0.7080863317
H        1.0334006466   -0.9519346194    1.9003094478
H        2.5787480441    1.0965319641   -1.1315365603
H        2.2022225305   -0.3972745044   -1.7335821026
H        2.8811736667   -0.9103745071    0.3437249193
14   
torsion grid (-30,)
C        0.2516848148   -3.2754321256    0.8357319131
C        0.4205634718   -2.0574985272    0.2022159004
C        0.8597888329   -0.7565471582    0.8285557727
N       -0.3085010426   -4.2373162291    0.0232913010
N       -0.0912916786   -4.0369476281   -1.2200418933
N        1.9852733999    0.2301204995   -1.0335730420
N        2.1173861683   -0.1982975496    0.3272614014
S        0.0457918207   -2.2912551357   -1.4729543464
H        0.3113581233   -3.4567122622    1.9034894853
H        0.0892124249    0.0057131400    0.6878015986
H        0.9756535168   -0.9168197956    1.9060026061
H        2.5766124278    1.0492448420   -1.1559562047
H        2.2904512732   -0.4866889745   -1.6936442360
H        2.8633298006   -0.8872442718    0.4327118829
14   
torsion grid (-15,)
C        0.3099475962   -3.2674504452    0.8180063286
C        0.3991451035   -2.0362958887    0.2040016195
C        0.8259795369   -0.7300960078    0.8300421309
N       -0.1608044657   -4.2771568700    0.0146148903
N       -0.1976977483   -3.9859480104   -1.2321022971
N        2.0118689734    0.1849765769   -1.0296451342
N        2.1010007305   -0.1912291549    0.3500041467
S       -0.0344536963   -2.2576509276   -1.4457117638
H        0.4638538083   -3.4656321896    1.8732392077
H        0.0660751197    0.0364838794    0.6608175614
H        0.9167566806   -0.8779807548    1.9113283144
H        2.6034634192    1.0019794427   -1.1639711916
H        2.3424672974   -0.5541252597   -1.6519050395
H        2.8408337259   -0.8778069836    0.5031230172
14   
torsion grid (0,)
C        0.3393686320   -3.2545279589    0.8000773655
C        0.3822231805   -2.0132627679    0.2038779825
C        0.8028054275   -0.7069408747    0.8338095128
N       -0.0413474730   -4.2822806707   -0.0252796156
N       -0.3046144371   -3.9326579497   -1.2296709977
N        2.0336681322    0.1432294534   -1.0269000009
N        2.0896390523   -0.1803233418    0.3682988771
S       -0.0875716474   -2.2169713026   -1.4343028249
H        0.5694750131   -3.4689752614    1.8379913752
H        0.0506168321    0.0638895491    0.6510713290
H        0.8793526785   -0.8507777917    1.9166201711
H        2.6070684654    0.9709668323   -1.1739066525
H        2.4045252107   -0.6081335991   -1.6103105043
H        2.8254078187   -0.8604955227    0.5628390885
14   
torsion grid (15,)
C        0.3550976043   -3.2602973981    0.7884046582
C        0.3529225167   -2.0094887502    0.2049369931
C        0.7709912089   -0.7015100771    0.8314867794
N        0.0657815428   -4.2861233334   -0.0772765577
N       -0.4129868289   -3.9079569100   -1.2037401025
N        2.0401184479    0.0850958072   -1.0306346903
N        2.0702250963   -0.1938944459    0.3754231793
S       -0.1493542510   -2.2000174914   -1.4298014054
H        0.6595467371   -3.4862506113    1.8044028042
H        0.0297108926    0.0754122188    0.6317192179
H        0.8337659827   -0.8358193596    1.9164131729
H        2.6072080095    0.9144609564   -1.1921753156
H        2.4324026419   -0.6797109976   -1.5814870789
H        2.7974528419   -0.8732779940    0.6016845535
14   
torsion grid (30,)
C        0.3703827611   -3.2516549288    0.7779719877
C        0.3411409364   -1.9916358034    0.2104093999
C        0.7527705951   -0.6827454585    0.8350553441
N        0.1697911542   -4.2631349175   -0.1385464467
N       -0.5012970966   -3.8858903367   -1.1618927264
N        2.0493190192    0.0438795860   -1.0324495247
N        2.0590463018   -0.1847879623    0.3834479771
S       -0.1696585318   -2.1746259866   -1.4327106524
H        0.7220219754   -3.5052704309    1.7724295520
H        0.0161908488    0.0960451293    0.6254795095
H        0.8092294113   -0.8111860652    1.9210917080
H        2.5942586092    0.8841633862   -1.2128223445
H        2.4760410606   -0.7273681998   -1.5470734042
H        2.7830746261   -0.8557691976    0.6418920677
14   
torsion grid (45,)
C        0.3851027354   -3.2578035764    0.7879946887
C        0.3362446079   -1.9907816373    0.2176197410
C        0.7374034741   -0.6773538730    0.8346907939
N        0.2650472009   -4.2298991967   -0.1964100803
N       -0.5759231538   -3.8894041740   -1.0892251328
N        2.0553337056    0.0020158530   -1.0370766185
N        2.0499650970   -0.1879258244    0.3850795521
S       -0.1749028844   -2.1618257455   -1.4511293108
H        0.7757185924   -3.5303861073    1.7624226258
H        0.0045614388    0.1009154011    0.6105698569
H        0.7875685370   -0.7937238734    1.9225968785
H        2.5804334683    0.8512839550   -1.2335589685
H        2.5091287759   -0.7715569047   -1.5237765363
H        2.7699606147   -0.8541060412    0.6658539632
