69
1 1 C30H30N3O5S
C                     8.726392045834     1.418699664403    -4.607819568505
C                     7.915484391356     2.518525709035    -4.906829955454
C                     8.577882605117     0.751315532380    -3.386199049584
C                   -10.217096657497    -6.346119264819    -1.384193912949
C                    -0.920752836382     0.454687718196    -0.767254037750
C                     0.662065800512     3.700757520249    -1.584594973663
C                     1.453042916118     2.135731276416     0.085975617213
C                     6.967760191604     2.960607351843    -3.981343724174
C                     7.624339117664     1.183157506201    -2.464788123132
C                    -9.393869011415    -5.294071154134    -1.777799811698
C                    -2.140970310722    -0.212687751196    -0.811335631838
C                     1.880740929662     4.375359899306    -1.538563525599
C                     2.676545924756     2.799281059163     0.144997889540
C                    -2.073654836650     2.563912010703    -0.921051551625
C                    -9.658949264713    -7.390165993824    -0.633750147107
C                    -7.584444368375    -6.427175782976    -0.672805880636
C                     0.432553770088     2.572900614803    -0.776673048135
C                    -0.865957509903     1.859447606012    -0.825569186446
C                     6.821134817553     2.297592329126    -2.752047304601
C                    -3.315679936680     1.919264982973    -0.961241507713
C                    -8.040468290779    -5.327999340413    -1.411597640560
C                    -3.323130889392     0.521303207237    -0.910975043848
C                     2.874908150346     3.910341398392    -0.675895418279
C                     5.828794422436     2.708557177173    -1.712942900239
C                    -4.607982131744     2.705206945669    -1.043494744257
C                    -5.806280498631     1.842292448149    -0.633059385635
C                    -5.697420221352     0.488391697382    -1.325066022143
C                    -6.831426060151    -0.460266658900    -0.954152454003
C                    -7.354257107830    -2.961153483891    -0.948432201817
C                    -7.091520104139    -4.215275686084    -1.784761905211
N                    -8.367696211095    -7.438199938414    -0.282505619628
N                     5.373252231214     4.025497545660    -1.802718554878
N                    -6.502780463504    -1.835331899833    -1.475519220715
O                     5.416042722868     1.951192180881    -0.844224397656
O                     5.016746989040     4.584360502452     0.720320591255
O                     4.247546055413     6.135215322374    -1.155147680181
O                    -4.512966908331    -0.215427412743    -0.926688818241
O                    -7.235241353658    -3.753823733734    -3.137550759406
S                     4.426126149880     4.795598085836    -0.592681428759
H                     9.468460137664     1.080690483392    -5.326117512167
H                     8.018670497202     3.028699303511    -5.860403706551
H                     9.206276473415    -0.103990354662    -3.153813914996
H                   -11.269408896403    -6.366893338623    -1.650558945013
H                    -0.001304263071    -0.120212890609    -0.713890855307
H                    -0.107681376290     4.040773976255    -2.271575574984
H                     1.281059698221     1.285939987421     0.740178669891
H                     6.325577647980     3.796779852563    -4.245712361127
H                     7.490097278816     0.675428620478    -1.514915527406
H                    -9.787625244118    -4.473423643837    -2.372994996253
H                    -2.183960291601    -1.297770722943    -0.775770038976
H                     2.060925441805     5.251568249127    -2.153225647454
H                     3.466700127466     2.469688891489     0.809186230428
H                    -2.055539089856     3.651109489915    -0.928475029457
H                   -10.276112743742    -8.224993294324    -0.307708954312
H                    -6.534562333475    -6.499081001499    -0.384972584228
H                    -4.549189358282     3.588339843879    -0.401265696539
H                    -4.753477103897     3.073798309579    -2.066369892121
H                    -5.809237371548     1.683403127651     0.451059769200
H                    -6.748521332376     2.328608940057    -0.905889793731
H                    -5.669008146567     0.633251635715    -2.416518133755
H                    -7.787437010977    -0.149997497617    -1.378610918748
H                    -6.920262081275    -0.545049807019     0.130788857004
H                    -7.116820929140    -3.114902435174     0.104771732439
H                    -8.395759880896    -2.649992886555    -1.046810568659
H                    -6.058810615864    -4.552791890897    -1.612505764168
H                     5.850731887046     4.703145064392    -2.390806630196
H                    -6.578197354915    -1.870615679372    -2.503122217699
H                    -5.506576265108    -1.989068711790    -1.256215267397
H                    -7.155795968436    -4.506116476501    -3.748023374701
