
  -OEChem-05262117483D

 66 69  0     1  0  0  0  0  0999 V2000
   -0.9452    7.9340    2.4076 C   0  0  0  0  0  0  0  0  0  0  0  0
   -2.4789    1.2365   -3.0977 C   0  0  0  0  0  0  0  0  0  0  0  0
   -1.4718    6.6935    2.7333 C   0  0  0  0  0  0  0  0  0  0  0  0
   -1.9787    1.4237   -1.8093 C   0  0  0  0  0  0  0  0  0  0  0  0
   -4.1977    1.0889   -0.8695 C   0  0  0  0  0  0  0  0  0  0  0  0
   -0.8536    8.2488    1.0394 C   0  0  0  0  0  0  0  0  0  0  0  0
   -3.8405    0.9766   -3.2825 C   0  0  0  0  0  0  0  0  0  0  0  0
   -4.6802    0.8969   -2.1660 C   0  0  0  0  0  0  0  0  0  0  0  0
   -1.8163    6.0617    0.3652 C   0  0  0  0  0  0  0  0  0  0  0  0
   -1.2872    7.3266    0.0806 C   0  0  0  0  0  0  0  0  0  0  0  0
   -2.8334    1.3619   -0.6972 C   0  0  0  0  0  0  0  0  0  0  0  0
   -1.8986    5.7817    1.7348 C   0  0  0  0  0  0  0  0  0  0  0  0
   -0.4065    9.3503    0.2365 C   0  0  0  0  0  0  0  0  0  0  0  0
   -2.7071    0.7115   -6.2167 C   0  0  0  0  0  0  0  0  0  0  0  0
   -6.1082    0.6455   -2.5961 C   0  0  0  0  0  0  0  0  0  0  0  0
   -5.9456    0.1403   -4.0469 C   0  0  0  0  0  0  0  0  0  0  0  0
   -4.6453    0.8089   -4.5641 C   0  0  2  0  0  0  0  0  0  0  0  0
   -4.1773    4.6498   -2.3851 C   0  0  0  0  0  0  0  0  0  0  0  0
   -4.9057   -0.2185   -6.8901 C   0  0  0  0  0  0  0  0  0  0  0  0
   -1.7916    2.7478   -7.0040 C   0  0  0  0  0  0  0  0  0  0  0  0
   -2.3024    5.1375   -0.7204 C   0  0  0  0  0  0  0  0  0  0  0  0
   -3.7215    5.5055   -1.1998 C   0  0  0  0  0  0  0  0  0  0  0  0
   -2.2160    2.2845    2.8006 C   0  0  0  0  0  0  0  0  0  0  0  0
   -3.0909    1.7991    1.6526 C   0  0  0  0  0  0  0  0  0  0  0  0
   -1.4732    3.5718    2.4753 C   0  0  0  0  0  0  0  0  0  0  0  0
   -3.9587    0.0239   -5.6973 C   0  0  1  0  0  0  0  0  0  0  0  0
    0.1716   10.6485    0.7254 C   0  0  0  0  0  0  0  0  0  0  0  0
   -0.5493    9.1287   -1.0460 N   0  0  0  0  0  0  0  0  0  0  0  0
   -1.6374    0.1643   -6.4104 O   0  0  0  0  0  0  0  0  0  0  0  0
   -1.1081    7.8495   -1.1697 O   0  0  0  0  0  0  0  0  0  0  0  0
   -2.2424    1.5931    0.5198 O   0  0  0  0  0  0  0  0  0  0  0  0
   -2.4479    4.5819    2.1379 O   0  0  0  0  0  0  0  0  0  0  0  0
   -2.9236    2.0238   -6.4816 O   0  0  0  0  0  0  0  0  0  0  0  0
   -0.7236   11.3015    1.5105 F   0  0  0  0  0  0  0  0  0  0  0  0
    1.2682   10.4191    1.4931 F   0  0  0  0  0  0  0  0  0  0  0  0
    0.5269   11.4707   -0.2711 F   0  0  0  0  0  0  0  0  0  0  0  0
   -0.6265    8.6325    3.1744 H   0  0  0  0  0  0  0  0  0  0  0  0
   -1.7925    1.2964   -3.9361 H   0  0  0  0  0  0  0  0  0  0  0  0
   -1.5862    6.3970    3.7718 H   0  0  0  0  0  0  0  0  0  0  0  0
   -0.9259    1.6314   -1.6415 H   0  0  0  0  0  0  0  0  0  0  0  0
   -4.8733    1.0296   -0.0228 H   0  0  0  0  0  0  0  0  0  0  0  0
   -6.6360   -0.0653   -1.9522 H   0  0  0  0  0  0  0  0  0  0  0  0
   -6.6759    1.5860   -2.5735 H   0  0  0  0  0  0  0  0  0  0  0  0
   -5.8081   -0.9481   -4.0361 H   0  0  0  0  0  0  0  0  0  0  0  0
   -6.8142    0.3612   -4.6726 H   0  0  0  0  0  0  0  0  0  0  0  0
   -4.8904    1.8067   -4.9526 H   0  0  0  0  0  0  0  0  0  0  0  0
   -3.4991    4.7652   -3.2382 H   0  0  0  0  0  0  0  0  0  0  0  0
   -4.2014    3.5890   -2.1250 H   0  0  0  0  0  0  0  0  0  0  0  0
   -5.1806    4.9415   -2.7146 H   0  0  0  0  0  0  0  0  0  0  0  0
   -5.2931    0.7286   -7.2778 H   0  0  0  0  0  0  0  0  0  0  0  0
   -5.7529   -0.8391   -6.5865 H   0  0  0  0  0  0  0  0  0  0  0  0
   -4.3850   -0.7364   -7.7014 H   0  0  0  0  0  0  0  0  0  0  0  0
   -2.1437    3.7676   -7.1584 H   0  0  0  0  0  0  0  0  0  0  0  0
   -1.4574    2.3063   -7.9458 H   0  0  0  0  0  0  0  0  0  0  0  0
   -0.9662    2.7310   -6.2881 H   0  0  0  0  0  0  0  0  0  0  0  0
   -1.6146    5.1908   -1.5718 H   0  0  0  0  0  0  0  0  0  0  0  0
   -2.2930    4.1073   -0.3615 H   0  0  0  0  0  0  0  0  0  0  0  0
   -4.4171    5.3884   -0.3602 H   0  0  0  0  0  0  0  0  0  0  0  0
   -3.7414    6.5657   -1.4778 H   0  0  0  0  0  0  0  0  0  0  0  0
   -2.8513    2.4351    3.6804 H   0  0  0  0  0  0  0  0  0  0  0  0
   -1.4764    1.5163    3.0523 H   0  0  0  0  0  0  0  0  0  0  0  0
   -3.5934    0.8616    1.9248 H   0  0  0  0  0  0  0  0  0  0  0  0
   -3.8519    2.5503    1.4136 H   0  0  0  0  0  0  0  0  0  0  0  0
   -0.7987    3.4244    1.6249 H   0  0  0  0  0  0  0  0  0  0  0  0
   -0.8804    3.9046    3.3370 H   0  0  0  0  0  0  0  0  0  0  0  0
   -3.6185   -0.9413   -5.3099 H   0  0  0  0  0  0  0  0  0  0  0  0
  1  3  1  0  0  0  0
  1  6  2  0  0  0  0
  1 37  1  0  0  0  0
  2  4  2  0  0  0  0
  2  7  1  0  0  0  0
  2 38  1  0  0  0  0
  3 12  2  0  0  0  0
  3 39  1  0  0  0  0
  4 11  1  0  0  0  0
  4 40  1  0  0  0  0
  5  8  1  0  0  0  0
  5 11  2  0  0  0  0
  5 41  1  0  0  0  0
  6 10  1  0  0  0  0
  6 13  1  0  0  0  0
  7  8  2  0  0  0  0
  7 17  1  0  0  0  0
  8 15  1  0  0  0  0
  9 10  2  0  0  0  0
  9 12  1  0  0  0  0
  9 21  1  0  0  0  0
 10 30  1  0  0  0  0
 11 31  1  0  0  0  0
 12 32  1  0  0  0  0
 13 27  1  0  0  0  0
 13 28  2  0  0  0  0
 14 26  1  0  0  0  0
 14 29  2  0  0  0  0
 14 33  1  0  0  0  0
 15 16  1  0  0  0  0
 15 42  1  0  0  0  0
 15 43  1  0  0  0  0
 16 17  1  0  0  0  0
 16 44  1  0  0  0  0
 16 45  1  0  0  0  0
 17 26  1  0  0  0  0
 17 46  1  0  0  0  0
 18 22  1  0  0  0  0
 18 47  1  0  0  0  0
 18 48  1  0  0  0  0
 18 49  1  0  0  0  0
 19 26  1  0  0  0  0
 19 50  1  0  0  0  0
 19 51  1  0  0  0  0
 19 52  1  0  0  0  0
 20 33  1  0  0  0  0
 20 53  1  0  0  0  0
 20 54  1  0  0  0  0
 20 55  1  0  0  0  0
 21 22  1  0  0  0  0
 21 56  1  0  0  0  0
 21 57  1  0  0  0  0
 22 58  1  0  0  0  0
 22 59  1  0  0  0  0
 23 24  1  0  0  0  0
 23 25  1  0  0  0  0
 23 60  1  0  0  0  0
 23 61  1  0  0  0  0
 24 31  1  0  0  0  0
 24 62  1  0  0  0  0
 24 63  1  0  0  0  0
 25 32  1  0  0  0  0
 25 64  1  0  0  0  0
 25 65  1  0  0  0  0
 26 66  1  0  0  0  0
 27 34  1  0  0  0  0
 27 35  1  0  0  0  0
 27 36  1  0  0  0  0
 28 30  1  0  0  0  0
M  END
$$$$
