
  -OEChem-05262117483D

 25 26  0     0  0  0  0  0  0999 V2000
    1.8427    0.7033   -0.6824 C   0  0  0  0  0  0  0  0  0  0  0  0
    0.8528    1.6863   -0.7631 C   0  0  0  0  0  0  0  0  0  0  0  0
    2.2413    0.0020   -1.8392 C   0  0  0  0  0  0  0  0  0  0  0  0
    0.3226    1.8946   -2.0332 C   0  0  0  0  0  0  0  0  0  0  0  0
    0.7903    1.1385   -3.1486 C   0  0  0  0  0  0  0  0  0  0  0  0
   -0.7049    2.4722   -3.9075 C   0  0  0  0  0  0  0  0  0  0  0  0
   -1.6964    3.1945   -4.7671 C   0  0  0  0  0  0  0  0  0  0  0  0
   -3.6109    6.1260   -3.6084 C   0  0  0  0  0  0  0  0  0  0  0  0
   -3.2773    4.9675   -4.5237 C   0  0  0  0  0  0  0  0  0  0  0  0
    1.7386    0.1988   -3.0637 N   0  0  0  0  0  0  0  0  0  0  0  0
    0.1240    1.5334   -4.3039 N   0  0  0  0  0  0  0  0  0  0  0  0
   -0.6436    2.7350   -2.5563 N   0  0  0  0  0  0  0  0  0  0  0  0
   -3.8976    5.6040   -2.3077 O   0  0  0  0  0  0  0  0  0  0  0  0
   -2.0485    4.3960   -4.0953 O   0  0  0  0  0  0  0  0  0  0  0  0
    2.3118    0.4707    0.2690 H   0  0  0  0  0  0  0  0  0  0  0  0
    0.5245    2.2427    0.1111 H   0  0  0  0  0  0  0  0  0  0  0  0
    3.0135   -0.7616   -1.7592 H   0  0  0  0  0  0  0  0  0  0  0  0
   -1.2585    3.3889   -5.7546 H   0  0  0  0  0  0  0  0  0  0  0  0
   -2.5834    2.5584   -4.9094 H   0  0  0  0  0  0  0  0  0  0  0  0
   -4.4801    6.6569   -4.0234 H   0  0  0  0  0  0  0  0  0  0  0  0
   -2.7592    6.8198   -3.5785 H   0  0  0  0  0  0  0  0  0  0  0  0
   -3.1960    5.3306   -5.5596 H   0  0  0  0  0  0  0  0  0  0  0  0
   -4.0817    4.2186   -4.4789 H   0  0  0  0  0  0  0  0  0  0  0  0
   -1.1809    3.4643   -2.1019 H   0  0  0  0  0  0  0  0  0  0  0  0
   -4.0892    6.3478   -1.7166 H   0  0  0  0  0  0  0  0  0  0  0  0
  1  2  1  0  0  0  0
  1  3  2  0  0  0  0
  1 15  1  0  0  0  0
  2  4  2  0  0  0  0
  2 16  1  0  0  0  0
  3 10  1  0  0  0  0
  3 17  1  0  0  0  0
  4  5  1  0  0  0  0
  4 12  1  0  0  0  0
  5 10  2  0  0  0  0
  5 11  1  0  0  0  0
  6  7  1  0  0  0  0
  6 11  2  0  0  0  0
  6 12  1  0  0  0  0
  7 14  1  0  0  0  0
  7 18  1  0  0  0  0
  7 19  1  0  0  0  0
  8  9  1  0  0  0  0
  8 13  1  0  0  0  0
  8 20  1  0  0  0  0
  8 21  1  0  0  0  0
  9 14  1  0  0  0  0
  9 22  1  0  0  0  0
  9 23  1  0  0  0  0
 12 24  1  0  0  0  0
 13 25  1  0  0  0  0
M  END
$$$$
