
  -OEChem-05262117483D

 58 60  0     1  0  0  0  0  0999 V2000
   -5.2678   -8.6428   13.0266 C   0  0  0  0  0  0  0  0  0  0  0  0
   -4.0772   -8.3799   13.7124 C   0  0  0  0  0  0  0  0  0  0  0  0
   -5.4971   -8.0356   11.7873 C   0  0  0  0  0  0  0  0  0  0  0  0
    3.6633   -5.2921    7.4132 C   0  0  0  0  0  0  0  0  0  0  0  0
   -3.1245   -7.5190   13.1591 C   0  0  0  0  0  0  0  0  0  0  0  0
   -4.5405   -7.1750   11.2400 C   0  0  0  0  0  0  0  0  0  0  0  0
    3.5636   -5.6354    6.0640 C   0  0  0  0  0  0  0  0  0  0  0  0
    2.6050   -4.6868    8.0950 C   0  0  0  0  0  0  0  0  0  0  0  0
    1.3039   -4.7589    6.0319 C   0  0  0  0  0  0  0  0  0  0  0  0
    3.1377   -6.9935    0.9141 C   0  0  0  0  0  0  0  0  0  0  0  0
   -3.3414   -6.9049   11.9165 C   0  0  0  0  0  0  0  0  0  0  0  0
    2.3768   -5.3677    5.3536 C   0  0  0  0  0  0  0  0  0  0  0  0
    1.4325   -4.4343    7.3791 C   0  0  0  0  0  0  0  0  0  0  0  0
    4.3492   -7.6036    1.1932 C   0  0  0  0  0  0  0  0  0  0  0  0
    4.8333   -7.5365    2.5255 C   0  0  0  0  0  0  0  0  0  0  0  0
    2.9615   -6.3246    3.0755 C   0  0  0  0  0  0  0  0  0  0  0  0
    5.9215   -8.6857    5.3246 C   0  0  0  0  0  0  0  0  0  0  0  0
   -2.2874   -6.0180   11.2947 C   0  0  0  0  0  0  0  0  0  0  0  0
   -1.2852   -6.8242   10.4493 C   0  0  0  0  0  0  0  0  0  0  0  0
   -0.2287   -5.9499    9.7712 C   0  0  0  0  0  0  0  0  0  0  0  0
    8.0827   -8.3036    4.1115 C   0  0  0  0  0  0  0  0  0  0  0  0
    6.6156   -7.8964    4.2094 C   0  0  1  0  0  0  0  0  0  0  0  0
    2.4185   -6.3490    1.8422 N   0  0  0  0  0  0  0  0  0  0  0  0
    4.1182   -6.8781    3.4570 N   0  0  0  0  0  0  0  0  0  0  0  0
    2.1888   -5.6444    3.9963 N   0  0  0  0  0  0  0  0  0  0  0  0
    5.9947   -8.1346    2.9022 N   0  0  0  0  0  0  0  0  0  0  0  0
   -0.8704   -5.0419    8.8050 N   0  0  0  0  0  0  0  0  0  0  0  0
    0.5089   -3.0185    9.4064 O   0  0  0  0  0  0  0  0  0  0  0  0
   -0.8473   -3.1001    7.2251 O   0  0  0  0  0  0  0  0  0  0  0  0
    8.6721   -7.6064    3.0098 O   0  0  0  0  0  0  0  0  0  0  0  0
    0.0117   -3.7298    8.2294 S   0  0  0  0  0  0  0  0  0  0  0  0
    5.3326   -8.5014   -0.1822 Br  0  0  0  0  0  0  0  0  0  0  0  0
   -6.0117   -9.3088   13.4562 H   0  0  0  0  0  0  0  0  0  0  0  0
   -3.8933   -8.8412   14.6797 H   0  0  0  0  0  0  0  0  0  0  0  0
   -6.4228   -8.2277   11.2504 H   0  0  0  0  0  0  0  0  0  0  0  0
    4.5931   -5.4928    7.9390 H   0  0  0  0  0  0  0  0  0  0  0  0
   -2.2031   -7.3149   13.7017 H   0  0  0  0  0  0  0  0  0  0  0  0
   -4.7295   -6.6998   10.2792 H   0  0  0  0  0  0  0  0  0  0  0  0
    4.3927   -6.0947    5.5473 H   0  0  0  0  0  0  0  0  0  0  0  0
    2.6861   -4.3937    9.1360 H   0  0  0  0  0  0  0  0  0  0  0  0
    0.3828   -4.5145    5.5086 H   0  0  0  0  0  0  0  0  0  0  0  0
    2.7260   -7.0224   -0.0927 H   0  0  0  0  0  0  0  0  0  0  0  0
    5.9944   -9.7620    5.1368 H   0  0  0  0  0  0  0  0  0  0  0  0
    4.8660   -8.4183    5.3824 H   0  0  0  0  0  0  0  0  0  0  0  0
    6.3859   -8.4678    6.2928 H   0  0  0  0  0  0  0  0  0  0  0  0
   -1.7378   -5.4813   12.0770 H   0  0  0  0  0  0  0  0  0  0  0  0
   -2.7536   -5.2571   10.6622 H   0  0  0  0  0  0  0  0  0  0  0  0
   -1.8273   -7.4068    9.6928 H   0  0  0  0  0  0  0  0  0  0  0  0
   -0.7701   -7.5556   11.0831 H   0  0  0  0  0  0  0  0  0  0  0  0
    0.5344   -6.5768    9.2887 H   0  0  0  0  0  0  0  0  0  0  0  0
    0.2701   -5.3224   10.5139 H   0  0  0  0  0  0  0  0  0  0  0  0
    8.5805   -8.0504    5.0566 H   0  0  0  0  0  0  0  0  0  0  0  0
    8.1522   -9.3917    3.9640 H   0  0  0  0  0  0  0  0  0  0  0  0
    6.5670   -6.8233    4.4331 H   0  0  0  0  0  0  0  0  0  0  0  0
    1.3313   -5.2998    3.5809 H   0  0  0  0  0  0  0  0  0  0  0  0
    6.6412   -8.3315    2.1453 H   0  0  0  0  0  0  0  0  0  0  0  0
   -1.3246   -5.5176    8.0263 H   0  0  0  0  0  0  0  0  0  0  0  0
    9.5897   -7.9019    2.9087 H   0  0  0  0  0  0  0  0  0  0  0  0
  1  2  1  0  0  0  0
  1  3  2  0  0  0  0
  1 33  1  0  0  0  0
  2  5  2  0  0  0  0
  2 34  1  0  0  0  0
  3  6  1  0  0  0  0
  3 35  1  0  0  0  0
  4  7  1  0  0  0  0
  4  8  2  0  0  0  0
  4 36  1  0  0  0  0
  5 11  1  0  0  0  0
  5 37  1  0  0  0  0
  6 11  2  0  0  0  0
  6 38  1  0  0  0  0
  7 12  2  0  0  0  0
  7 39  1  0  0  0  0
  8 13  1  0  0  0  0
  8 40  1  0  0  0  0
  9 12  1  0  0  0  0
  9 13  2  0  0  0  0
  9 41  1  0  0  0  0
 10 14  1  0  0  0  0
 10 23  2  0  0  0  0
 10 42  1  0  0  0  0
 11 18  1  0  0  0  0
 12 25  1  0  0  0  0
 13 31  1  0  0  0  0
 14 15  2  0  0  0  0
 14 32  1  0  0  0  0
 15 24  1  0  0  0  0
 15 26  1  0  0  0  0
 16 23  1  0  0  0  0
 16 24  2  0  0  0  0
 16 25  1  0  0  0  0
 17 22  1  0  0  0  0
 17 43  1  0  0  0  0
 17 44  1  0  0  0  0
 17 45  1  0  0  0  0
 18 19  1  0  0  0  0
 18 46  1  0  0  0  0
 18 47  1  0  0  0  0
 19 20  1  0  0  0  0
 19 48  1  0  0  0  0
 19 49  1  0  0  0  0
 20 27  1  0  0  0  0
 20 50  1  0  0  0  0
 20 51  1  0  0  0  0
 21 22  1  0  0  0  0
 21 30  1  0  0  0  0
 21 52  1  0  0  0  0
 21 53  1  0  0  0  0
 22 26  1  0  0  0  0
 22 54  1  0  0  0  0
 25 55  1  0  0  0  0
 26 56  1  0  0  0  0
 27 31  1  0  0  0  0
 27 57  1  0  0  0  0
 28 31  2  0  0  0  0
 29 31  2  0  0  0  0
 30 58  1  0  0  0  0
M  END
$$$$
