
  -OEChem-05262117483D

 34 34  0     1  0  0  0  0  0999 V2000
    2.4146    0.7220   -0.6606 C   0  0  0  0  0  0  0  0  0  0  0  0
    0.1395   -0.0450   -0.7635 C   0  0  0  0  0  0  0  0  0  0  0  0
    2.8084   -0.5577   -0.2828 C   0  0  0  0  0  0  0  0  0  0  0  0
    1.0624    0.9976   -0.9060 C   0  0  0  0  0  0  0  0  0  0  0  0
    1.7971   -1.5403   -0.1569 C   0  0  0  0  0  0  0  0  0  0  0  0
    4.2604   -0.8771   -0.0223 C   0  0  0  0  0  0  0  0  0  0  0  0
   -2.1391    5.9088   -2.4287 C   0  0  0  0  0  0  0  0  0  0  0  0
   -3.7033    3.1974   -3.2401 C   0  0  0  0  0  0  0  0  0  0  0  0
    2.1233   -2.9557    0.2523 C   0  0  0  0  0  0  0  0  0  0  0  0
   -0.6682    4.0521   -1.9327 C   0  0  0  0  0  0  0  0  0  0  0  0
   -0.6179    2.5836   -1.5372 C   0  0  0  0  0  0  0  0  0  0  0  0
    0.5078   -1.2808   -0.3942 N   0  0  0  0  0  0  0  0  0  0  0  0
   -2.0481    4.4692   -2.1798 N   0  0  2  0  0  0  0  0  0  0  0  0
    2.6306   -2.9513    1.5995 O   0  0  0  0  0  0  0  0  0  0  0  0
    0.7548    2.2777   -1.2693 O   0  0  0  0  0  0  0  0  0  0  0  0
   -2.4350    3.8208   -3.4224 O   0  0  0  0  0  0  0  0  0  0  0  0
    3.1406    1.5232   -0.7743 H   0  0  0  0  0  0  0  0  0  0  0  0
   -0.9213    0.1032   -0.9438 H   0  0  0  0  0  0  0  0  0  0  0  0
    4.4046   -1.2104    1.0083 H   0  0  0  0  0  0  0  0  0  0  0  0
    4.6085   -1.6878   -0.6732 H   0  0  0  0  0  0  0  0  0  0  0  0
    4.8930   -0.0047   -0.2064 H   0  0  0  0  0  0  0  0  0  0  0  0
   -3.1730    6.1620   -2.6749 H   0  0  0  0  0  0  0  0  0  0  0  0
   -1.4842    6.2372   -3.2501 H   0  0  0  0  0  0  0  0  0  0  0  0
   -1.8637    6.4369   -1.5107 H   0  0  0  0  0  0  0  0  0  0  0  0
   -3.9464    2.7364   -4.2015 H   0  0  0  0  0  0  0  0  0  0  0  0
   -4.4777    3.9305   -2.9806 H   0  0  0  0  0  0  0  0  0  0  0  0
   -3.6621    2.4295   -2.4582 H   0  0  0  0  0  0  0  0  0  0  0  0
    1.2040   -3.5463    0.1778 H   0  0  0  0  0  0  0  0  0  0  0  0
    2.8747   -3.3838   -0.4293 H   0  0  0  0  0  0  0  0  0  0  0  0
   -0.2846    4.6593   -1.1066 H   0  0  0  0  0  0  0  0  0  0  0  0
   -0.0276    4.2246   -2.8112 H   0  0  0  0  0  0  0  0  0  0  0  0
   -0.9928    1.9563   -2.3532 H   0  0  0  0  0  0  0  0  0  0  0  0
   -1.2293    2.4111   -0.6431 H   0  0  0  0  0  0  0  0  0  0  0  0
    2.8579   -3.8648    1.8329 H   0  0  0  0  0  0  0  0  0  0  0  0
  1  3  1  0  0  0  0
  1  4  2  0  0  0  0
  1 17  1  0  0  0  0
  2  4  1  0  0  0  0
  2 12  2  0  0  0  0
  2 18  1  0  0  0  0
  3  5  2  0  0  0  0
  3  6  1  0  0  0  0
  4 15  1  0  0  0  0
  5  9  1  0  0  0  0
  5 12  1  0  0  0  0
  6 19  1  0  0  0  0
  6 20  1  0  0  0  0
  6 21  1  0  0  0  0
  7 13  1  0  0  0  0
  7 22  1  0  0  0  0
  7 23  1  0  0  0  0
  7 24  1  0  0  0  0
  8 16  1  0  0  0  0
  8 25  1  0  0  0  0
  8 26  1  0  0  0  0
  8 27  1  0  0  0  0
  9 14  1  0  0  0  0
  9 28  1  0  0  0  0
  9 29  1  0  0  0  0
 10 11  1  0  0  0  0
 10 13  1  0  0  0  0
 10 30  1  0  0  0  0
 10 31  1  0  0  0  0
 11 15  1  0  0  0  0
 11 32  1  0  0  0  0
 11 33  1  0  0  0  0
 13 16  1  0  0  0  0
 14 34  1  0  0  0  0
M  END
$$$$
