
  -OEChem-05262117483D

 34 34  0     1  0  0  0  0  0999 V2000
    2.4566    0.5026   -1.3056 C   0  0  0  0  0  0  0  0  0  0  0  0
    0.2830   -0.4713   -1.6240 C   0  0  0  0  0  0  0  0  0  0  0  0
    2.8593   -0.6579   -0.6526 C   0  0  0  0  0  0  0  0  0  0  0  0
    1.1518    0.6108   -1.8061 C   0  0  0  0  0  0  0  0  0  0  0  0
    1.9086   -1.6994   -0.5282 C   0  0  0  0  0  0  0  0  0  0  0  0
    4.2574   -0.7910   -0.0995 C   0  0  0  0  0  0  0  0  0  0  0  0
   -1.9613    4.7935   -4.8888 C   0  0  0  0  0  0  0  0  0  0  0  0
   -3.9442    2.8202   -3.2660 C   0  0  0  0  0  0  0  0  0  0  0  0
    2.2513   -2.9984    0.1589 C   0  0  0  0  0  0  0  0  0  0  0  0
   -0.5794    3.3060   -3.5717 C   0  0  0  0  0  0  0  0  0  0  0  0
   -0.4972    1.9211   -2.9468 C   0  0  0  0  0  0  0  0  0  0  0  0
    0.6628   -1.5969   -1.0011 N   0  0  0  0  0  0  0  0  0  0  0  0
   -1.8992    3.5237   -4.1633 N   0  0  1  0  0  0  0  0  0  0  0  0
    3.2667   -3.6794   -0.6010 O   0  0  0  0  0  0  0  0  0  0  0  0
    0.8333    1.7792   -2.4373 O   0  0  0  0  0  0  0  0  0  0  0  0
   -2.8130    3.6569   -3.0402 O   0  0  0  0  0  0  0  0  0  0  0  0
    3.1378    1.3398   -1.4360 H   0  0  0  0  0  0  0  0  0  0  0  0
   -0.7415   -0.4475   -1.9841 H   0  0  0  0  0  0  0  0  0  0  0  0
    4.2375   -1.0009    0.9764 H   0  0  0  0  0  0  0  0  0  0  0  0
    4.7852   -1.6202   -0.5769 H   0  0  0  0  0  0  0  0  0  0  0  0
    4.8282    0.1290   -0.2510 H   0  0  0  0  0  0  0  0  0  0  0  0
   -2.9800    4.9445   -5.2539 H   0  0  0  0  0  0  0  0  0  0  0  0
   -1.2910    4.7325   -5.7516 H   0  0  0  0  0  0  0  0  0  0  0  0
   -1.6741    5.6517   -4.2624 H   0  0  0  0  0  0  0  0  0  0  0  0
   -4.5958    2.9648   -2.3998 H   0  0  0  0  0  0  0  0  0  0  0  0
   -3.6522    1.7658   -3.3411 H   0  0  0  0  0  0  0  0  0  0  0  0
   -4.4811    3.1083   -4.1788 H   0  0  0  0  0  0  0  0  0  0  0  0
    2.6153   -2.8029    1.1796 H   0  0  0  0  0  0  0  0  0  0  0  0
    1.3357   -3.5963    0.2207 H   0  0  0  0  0  0  0  0  0  0  0  0
   -0.3407    4.0711   -2.8171 H   0  0  0  0  0  0  0  0  0  0  0  0
    0.1577    3.3803   -4.3775 H   0  0  0  0  0  0  0  0  0  0  0  0
   -0.7010    1.1522   -3.7020 H   0  0  0  0  0  0  0  0  0  0  0  0
   -1.2254    1.8261   -2.1340 H   0  0  0  0  0  0  0  0  0  0  0  0
    3.4878   -4.4987   -0.1314 H   0  0  0  0  0  0  0  0  0  0  0  0
  1  3  1  0  0  0  0
  1  4  2  0  0  0  0
  1 17  1  0  0  0  0
  2  4  1  0  0  0  0
  2 12  2  0  0  0  0
  2 18  1  0  0  0  0
  3  5  2  0  0  0  0
  3  6  1  0  0  0  0
  4 15  1  0  0  0  0
  5  9  1  0  0  0  0
  5 12  1  0  0  0  0
  6 19  1  0  0  0  0
  6 20  1  0  0  0  0
  6 21  1  0  0  0  0
  7 13  1  0  0  0  0
  7 22  1  0  0  0  0
  7 23  1  0  0  0  0
  7 24  1  0  0  0  0
  8 16  1  0  0  0  0
  8 25  1  0  0  0  0
  8 26  1  0  0  0  0
  8 27  1  0  0  0  0
  9 14  1  0  0  0  0
  9 28  1  0  0  0  0
  9 29  1  0  0  0  0
 10 11  1  0  0  0  0
 10 13  1  0  0  0  0
 10 30  1  0  0  0  0
 10 31  1  0  0  0  0
 11 15  1  0  0  0  0
 11 32  1  0  0  0  0
 11 33  1  0  0  0  0
 13 16  1  0  0  0  0
 14 34  1  0  0  0  0
M  END
$$$$
