34
0 1 C11H18N2O3
C                     2.793339838449     0.491308882008    -1.414140961486
C                     0.535928532900    -0.332308423713    -1.446476297902
C                     3.130608742876    -0.576130374308    -0.572437447642
C                     1.476370793849     0.621819301839    -1.866780901463
C                     2.114883662854    -1.484039222520    -0.219902553286
C                     4.544392271615    -0.733980454265    -0.065974020426
C                     0.094448506371     3.645884970940    -6.298768059375
C                     1.813315577235     0.863318053353    -6.271058340334
C                     2.389511267886    -2.668511660005     0.672939720136
C                     1.252020315604     3.461893124018    -4.184016103436
C                     1.960525628603     2.548386025426    -3.200781456379
N                     0.847913254949    -1.353385808423    -0.650960312941
N                     0.772333048868     2.747283497889    -5.366688438804
O                     3.288935664418    -3.568885543330    -0.001327605078
O                     1.015363027558     1.607283700575    -2.688336040636
O                     1.956794511217     2.267518034637    -6.053273988170
H                     3.559885069785     1.204151220298    -1.699848124406
H                    -0.495707260105    -0.246313353946    -1.783312377704
H                     4.573424108166    -0.732370141554     1.030051462896
H                     4.970226808779    -1.684922834640    -0.395396692639
H                     5.182231720286     0.081400456885    -0.418269298049
H                    -0.202214805020     3.080763059562    -7.185467305063
H                     0.726991351547     4.492778168023    -6.609270751853
H                    -0.809389995404     4.028130255201    -5.814067341286
H                     2.730911776303     0.547418938683    -6.775577850943
H                     0.949379852366     0.647379450133    -6.911830288019
H                     1.698365226984     0.324548050502    -5.323914711484
H                     2.837310241822    -2.334789920381     1.621851229504
H                     1.431856618559    -3.154520938083     0.887942917968
H                     0.377666795408     3.910427744237    -3.701489991469
H                     1.948219300354     4.273298718376    -4.458461062954
H                     2.374833887060     3.149860574933    -2.379954380379
H                     2.783614037577     2.028587851095    -3.702758069403
H                     3.453162552017    -4.319858179461     0.590185384525
