
  -OEChem-05262117483D

 31 32  0     1  0  0  0  0  0999 V2000
   -4.2298   -7.1326    3.8866 C   0  0  0  0  0  0  0  0  0  0  0  0
   -3.1935   -4.9008    3.8528 C   0  0  0  0  0  0  0  0  0  0  0  0
   -2.1321   -4.0827    3.4756 C   0  0  0  0  0  0  0  0  0  0  0  0
   -1.2804   -0.9319    0.7083 C   0  0  0  0  0  0  0  0  0  0  0  0
   -1.1238   -6.0058    2.4641 C   0  0  0  0  0  0  0  0  0  0  0  0
   -0.9664   -2.2721    0.7147 C   0  0  0  0  0  0  0  0  0  0  0  0
   -0.2165   -1.2810    2.5424 C   0  0  0  0  0  0  0  0  0  0  0  0
   -3.1421   -6.2588    3.5038 C   0  0  0  0  0  0  0  0  0  0  0  0
   -1.0594   -4.6392    2.7717 C   0  0  0  0  0  0  0  0  0  0  0  0
    2.8604   -4.8786    5.0063 C   0  0  0  0  0  0  0  0  0  0  0  0
    1.8037   -5.0367    3.9077 C   0  0  0  0  0  0  0  0  0  0  0  0
    1.1726   -3.6948    3.5197 C   0  0  0  0  0  0  0  0  0  0  0  0
    0.1498   -3.8103    2.3737 C   0  0  2  0  0  0  0  0  0  0  0  0
   -5.1233   -7.8025    4.2158 N   0  0  0  0  0  0  0  0  0  0  0  0
   -0.8074   -0.3226    1.8526 N   0  0  0  0  0  0  0  0  0  0  0  0
   -2.1293   -6.8111    2.8156 N   0  0  0  0  0  0  0  0  0  0  0  0
   -0.2713   -2.4914    1.8928 N   0  0  0  0  0  0  0  0  0  0  0  0
   -4.0472   -4.5093    4.3967 H   0  0  0  0  0  0  0  0  0  0  0  0
   -2.1454   -3.0217    3.7109 H   0  0  0  0  0  0  0  0  0  0  0  0
   -1.8107   -0.3743   -0.0529 H   0  0  0  0  0  0  0  0  0  0  0  0
   -0.3187   -6.4753    1.8996 H   0  0  0  0  0  0  0  0  0  0  0  0
   -1.1680   -3.0725    0.0165 H   0  0  0  0  0  0  0  0  0  0  0  0
    0.2750   -1.1505    3.4961 H   0  0  0  0  0  0  0  0  0  0  0  0
    3.6735   -4.2187    4.6842 H   0  0  0  0  0  0  0  0  0  0  0  0
    2.4235   -4.4504    5.9153 H   0  0  0  0  0  0  0  0  0  0  0  0
    3.2990   -5.8457    5.2713 H   0  0  0  0  0  0  0  0  0  0  0  0
    1.0269   -5.7300    4.2479 H   0  0  0  0  0  0  0  0  0  0  0  0
    2.2616   -5.4934    3.0208 H   0  0  0  0  0  0  0  0  0  0  0  0
    1.9602   -3.0008    3.2045 H   0  0  0  0  0  0  0  0  0  0  0  0
    0.6872   -3.2568    4.3998 H   0  0  0  0  0  0  0  0  0  0  0  0
    0.6461   -4.3109    1.5348 H   0  0  0  0  0  0  0  0  0  0  0  0
  1  8  1  0  0  0  0
  1 14  3  0  0  0  0
  2  3  1  0  0  0  0
  2  8  2  0  0  0  0
  2 18  1  0  0  0  0
  3  9  2  0  0  0  0
  3 19  1  0  0  0  0
  4  6  2  0  0  0  0
  4 15  1  0  0  0  0
  4 20  1  0  0  0  0
  5  9  1  0  0  0  0
  5 16  2  0  0  0  0
  5 21  1  0  0  0  0
  6 17  1  0  0  0  0
  6 22  1  0  0  0  0
  7 15  2  0  0  0  0
  7 17  1  0  0  0  0
  7 23  1  0  0  0  0
  8 16  1  0  0  0  0
  9 13  1  0  0  0  0
 10 11  1  0  0  0  0
 10 24  1  0  0  0  0
 10 25  1  0  0  0  0
 10 26  1  0  0  0  0
 11 12  1  0  0  0  0
 11 27  1  0  0  0  0
 11 28  1  0  0  0  0
 12 13  1  0  0  0  0
 12 29  1  0  0  0  0
 12 30  1  0  0  0  0
 13 17  1  0  0  0  0
 13 31  1  0  0  0  0
M  END
$$$$
