34
0 1 C14H17NO2
C                     1.482825776842    -0.577367188452     0.649708136782
C                     0.520044834413    -1.428595955589     1.189808618143
C                     3.109234418070    -1.335800403028     2.292801253912
C                     2.780786781326    -0.521747160458     1.192742561811
C                     0.861439087955    -2.225683496322     2.281402538664
C                     2.145983836159    -2.185023461534     2.830670755903
C                     3.769559458397     0.415839834891     0.573170723211
C                    -1.811084708992    -1.729319463797     3.799357294836
C                     2.264654169907    -3.154220005587     3.989830414274
C                     0.791288594604    -3.481883555166     4.333668736265
C                     0.008714696684    -3.246674429351     3.013163131573
C                     5.156748228603     0.523898604492     1.184971647390
C                    -3.793868912228    -0.954775576044     5.172428998214
C                    -3.320910826948    -1.507594270736     3.823727768091
N                    -1.394922816851    -2.878873201100     3.177395268611
O                     3.473494614681     1.087809641993    -0.410046445123
O                    -1.021667068043    -0.920222553191     4.282686158048
H                     1.254534346571     0.066064721400    -0.194157097718
H                    -0.487039660193    -1.454585224266     0.780058813889
H                     4.103204282113    -1.300646383033     2.730177161915
H                     2.806190467793    -4.055995689927     3.674521115232
H                     2.809417972519    -2.733369434022     4.840507784049
H                     0.653363740580    -4.496378012418     4.717651393977
H                     0.422294976637    -2.773800583791     5.077020405629
H                     0.001998829327    -4.172246726012     2.423256988571
H                     5.673225382013    -0.441703545691     1.156040126963
H                     5.099287425931     0.833621289761     2.233910524456
H                     5.734044734855     1.257749532051     0.621411607841
H                    -3.633976758583    -1.683078212844     5.974281478098
H                    -3.236614289025    -0.049790156749     5.424451835589
H                    -4.860829998725    -0.713925003113     5.137819665613
H                    -3.544553229044    -0.784329898408     3.029876246545
H                    -3.858300772676    -2.429393295755     3.571403617212
H                    -2.098107152453    -3.518349384300     2.836036946201
