70
1 1 C23H38NO6S2
C                    -2.130564130834     2.706649577997    -0.928417243306
C                    -1.129477500070     3.442453915603    -0.269793475960
C                    -2.024928955815     1.324355564695    -1.001889604263
C                    -0.041834046180     2.801952488601     0.320264096393
C                    -0.925587616341     0.658729724498    -0.425800870909
C                     0.055421089114     1.408375633985     0.246726990604
C                    -0.786496545704    -0.801821983401    -0.554951712776
C                     0.565634345422    -1.410861364556    -0.093426104249
C                     1.041211476887    -0.601592635401     1.161294819623
C                     0.043656574828    -0.729807278113     2.321716343387
C                     3.885567453972    -3.288932632232     6.630271451089
C                     6.836260776609    -2.670240593079     4.433945018340
C                     1.827119058940    -3.426364880483    -4.816664651760
C                     1.493345814498    -6.149595787159     2.072977632698
C                     1.547735807109    -1.165242015938    -1.278767000914
C                     0.309817661995    -2.916100876081     0.190460741983
C                     2.491927092800    -0.958306309895     1.552476774532
C                     2.845680470601    -0.843546309979     3.039801944109
C                     3.840884079560    -3.036362996045     5.130709587693
C                     5.963521744332    -1.623542374034     5.112135573434
C                     4.250128038027    -1.401346086253     3.268163633237
C                     1.124100239385    -1.693482630571    -2.660477606924
C                     1.494769041898    -3.889770449260     0.309956491636
N                     4.493873750061    -1.718297972524     4.736515243886
O                    -1.649228043162    -1.495364784310    -1.082825178968
O                     3.161416884445    -3.415816769976    -2.500500816675
O                     0.809804674542    -4.382350293217    -2.555602663762
O                     3.438545984237    -4.327602312223     2.140539661016
O                     1.161945681133    -3.690565445461     3.030509475871
O                     1.143182650066     0.819292313919     0.822168979446
S                     1.777137228913    -3.366274585667    -3.016095022033
S                     1.961628052902    -4.410950770965     2.009896989216
H                    -2.977258770044     3.217659981563    -1.376317761056
H                    -1.205803136922     4.524778810437    -0.209534003190
H                    -2.775692159481     0.725100871254    -1.507964414319
H                     0.729535937207     3.359166074111     0.843294358125
H                     0.277616434960     0.015074353694     3.086046550046
H                     0.083246623879    -1.721247923803     2.771019556462
H                    -0.980969832097    -0.545350691889     1.992491022522
H                     4.894295139069    -3.484761988145     7.001501075609
H                     3.454833254432    -2.457623762213     7.199533195163
H                     3.280895203001    -4.173871702223     6.845251264580
H                     6.592321824932    -3.685315324893     4.754224990049
H                     6.772100966165    -2.621825815526     3.344690913065
H                     7.875122854850    -2.477874072289     4.714519125274
H                     2.142656465110    -4.439556318230    -5.072398937003
H                     0.825082565667    -3.234520424762    -5.204161564744
H                     2.550702472207    -2.696166561578    -5.181018967830
H                     1.729260942089    -6.495943530984     3.080652398024
H                     0.421797153176    -6.229322324233     1.882564596041
H                     2.073896760596    -6.698178190733     1.329972992457
H                     2.539239382552    -1.562575370166    -1.048048763955
H                     1.682399347276    -0.086307728831    -1.381222635829
H                    -0.291101452528    -3.280565303344    -0.642170319631
H                    -0.331951615395    -3.010324535055     1.068682293584
H                     2.716000599694    -1.976083756103     1.246641742559
H                     3.153434045135    -0.316742088674     0.963489685342
H                     2.786302760525     0.197245460587     3.378629248962
H                     2.125283349738    -1.427861536997     3.613027288992
H                     2.814257123482    -2.990772797106     4.768389555824
H                     4.339772869475    -3.813560024871     4.553854118895
H                     6.273308782842    -0.612644220982     4.837110159434
H                     6.017879901642    -1.704190870103     6.198567555477
H                     4.390951454931    -2.336127304654     2.725765453844
H                     5.018092596726    -0.687769197076     2.961443462419
H                     0.043516189406    -1.746743210845    -2.803710325334
H                     1.554960827611    -1.057387397613    -3.438330550902
H                     1.245899746150    -4.821112074001    -0.203171493915
H                     2.432314131703    -3.553497731516    -0.132914032682
H                     4.019718607721    -0.987564031030     5.277166725725
