
  -OEChem-05262117483D

 70 71  0     1  0  0  0  0  0999 V2000
   -0.9612    3.5013   -0.3532 C   0  0  0  0  0  0  0  0  0  0  0  0
    0.0161    3.6748    0.6405 C   0  0  0  0  0  0  0  0  0  0  0  0
   -1.2691    2.2200   -0.7950 C   0  0  0  0  0  0  0  0  0  0  0  0
    0.6722    2.5768    1.1976 C   0  0  0  0  0  0  0  0  0  0  0  0
   -0.6076    1.1020   -0.2561 C   0  0  0  0  0  0  0  0  0  0  0  0
    0.3554    1.2931    0.7488 C   0  0  0  0  0  0  0  0  0  0  0  0
   -0.8863   -0.2571   -0.7635 C   0  0  0  0  0  0  0  0  0  0  0  0
    0.0859   -1.3648   -0.2704 C   0  0  0  0  0  0  0  0  0  0  0  0
    0.3941   -1.0730    1.2406 C   0  0  1  0  0  0  0  0  0  0  0  0
   -0.8630   -1.0619    2.1201 C   0  0  0  0  0  0  0  0  0  0  0  0
    5.4981    0.1366    0.3450 C   0  0  0  0  0  0  0  0  0  0  0  0
    6.8332   -2.0411    2.7797 C   0  0  0  0  0  0  0  0  0  0  0  0
    3.5984   -4.2220   -2.9727 C   0  0  0  0  0  0  0  0  0  0  0  0
    0.3291   -6.8247   -0.4279 C   0  0  0  0  0  0  0  0  0  0  0  0
    1.3864   -1.1127   -1.1346 C   0  0  0  0  0  0  0  0  0  0  0  0
   -0.6314   -2.7104   -0.5243 C   0  0  0  0  0  0  0  0  0  0  0  0
    1.4341   -2.0546    1.8247 C   0  0  0  0  0  0  0  0  0  0  0  0
    2.3045   -1.5365    2.9870 C   0  0  0  0  0  0  0  0  0  0  0  0
    4.6024   -0.2802    1.5044 C   0  0  0  0  0  0  0  0  0  0  0  0
    5.8583   -2.4922    1.7009 C   0  0  0  0  0  0  0  0  0  0  0  0
    3.7160   -2.1275    2.9606 C   0  0  0  0  0  0  0  0  0  0  0  0
    1.7758   -2.1415   -2.2135 C   0  0  0  0  0  0  0  0  0  0  0  0
    0.0717   -4.0044   -0.0732 C   0  0  0  0  0  0  0  0  0  0  0  0
    4.5167   -1.7813    1.7180 N   0  3  0  0  0  0  0  0  0  0  0  0
   -1.7622   -0.4943   -1.5811 O   0  0  0  0  0  0  0  0  0  0  0  0
    4.4492   -1.8212   -2.1077 O   0  0  0  0  0  0  0  0  0  0  0  0
    3.3782   -3.3739   -0.4459 O   0  0  0  0  0  0  0  0  0  0  0  0
   -1.7558   -5.4703   -1.4034 O   0  0  0  0  0  0  0  0  0  0  0  0
    0.5520   -5.0975   -2.4334 O   0  0  0  0  0  0  0  0  0  0  0  0
    1.0308    0.2383    1.3127 O   0  0  0  0  0  0  0  0  0  0  0  0
    3.4120   -2.8371   -1.8482 S   0  0  0  0  0  0  0  0  0  0  0  0
   -0.3038   -5.3467   -1.2465 S   0  0  0  0  0  0  0  0  0  0  0  0
   -1.4713    4.3631   -0.7720 H   0  0  0  0  0  0  0  0  0  0  0  0
    0.2586    4.6739    0.9919 H   0  0  0  0  0  0  0  0  0  0  0  0
   -2.0145    2.0501   -1.5661 H   0  0  0  0  0  0  0  0  0  0  0  0
    1.4112    2.6999    1.9841 H   0  0  0  0  0  0  0  0  0  0  0  0
   -0.5871   -0.7945    3.1439 H   0  0  0  0  0  0  0  0  0  0  0  0
   -1.3271   -2.0509    2.1416 H   0  0  0  0  0  0  0  0  0  0  0  0
   -1.6130   -0.3469    1.7773 H   0  0  0  0  0  0  0  0  0  0  0  0
    6.5566   -0.0446    0.5445 H   0  0  0  0  0  0  0  0  0  0  0  0
    5.2204   -0.3605   -0.5867 H   0  0  0  0  0  0  0  0  0  0  0  0
    5.3739    1.2139    0.2019 H   0  0  0  0  0  0  0  0  0  0  0  0
    7.0616   -0.9746    2.7164 H   0  0  0  0  0  0  0  0  0  0  0  0
    6.4807   -2.2662    3.7887 H   0  0  0  0  0  0  0  0  0  0  0  0
    7.7714   -2.5839    2.6358 H   0  0  0  0  0  0  0  0  0  0  0  0
    4.5496   -4.6938   -2.7195 H   0  0  0  0  0  0  0  0  0  0  0  0
    2.7533   -4.8978   -2.8319 H   0  0  0  0  0  0  0  0  0  0  0  0
    3.6279   -3.8259   -3.9892 H   0  0  0  0  0  0  0  0  0  0  0  0
    0.2070   -7.6395   -1.1442 H   0  0  0  0  0  0  0  0  0  0  0  0
    1.3848   -6.6800   -0.1922 H   0  0  0  0  0  0  0  0  0  0  0  0
   -0.2645   -7.0178    0.4668 H   0  0  0  0  0  0  0  0  0  0  0  0
    2.2278   -0.9479   -0.4614 H   0  0  0  0  0  0  0  0  0  0  0  0
    1.2799   -0.1533   -1.6431 H   0  0  0  0  0  0  0  0  0  0  0  0
   -0.8549   -2.7498   -1.5921 H   0  0  0  0  0  0  0  0  0  0  0  0
   -1.6173   -2.6734   -0.0604 H   0  0  0  0  0  0  0  0  0  0  0  0
    0.9051   -2.9471    2.1620 H   0  0  0  0  0  0  0  0  0  0  0  0
    2.0779   -2.3910    1.0176 H   0  0  0  0  0  0  0  0  0  0  0  0
    2.3476   -0.4485    2.9956 H   0  0  0  0  0  0  0  0  0  0  0  0
    1.8742   -1.8263    3.9508 H   0  0  0  0  0  0  0  0  0  0  0  0
    3.5794    0.0547    1.3303 H   0  0  0  0  0  0  0  0  0  0  0  0
    4.9389    0.1494    2.4509 H   0  0  0  0  0  0  0  0  0  0  0  0
    5.6265   -3.5555    1.7922 H   0  0  0  0  0  0  0  0  0  0  0  0
    6.2663   -2.3347    0.7026 H   0  0  0  0  0  0  0  0  0  0  0  0
    4.2934   -1.7720    3.8150 H   0  0  0  0  0  0  0  0  0  0  0  0
    3.6839   -3.2197    2.9980 H   0  0  0  0  0  0  0  0  0  0  0  0
    1.1073   -2.9942   -2.3248 H   0  0  0  0  0  0  0  0  0  0  0  0
    1.8896   -1.6734   -3.1942 H   0  0  0  0  0  0  0  0  0  0  0  0
    1.1596   -3.9505   -0.0593 H   0  0  0  0  0  0  0  0  0  0  0  0
   -0.2827   -4.3404    0.9041 H   0  0  0  0  0  0  0  0  0  0  0  0
    4.0242   -2.1937    0.9039 H   0  0  0  0  0  0  0  0  0  0  0  0
  1  2  1  0  0  0  0
  1  3  2  0  0  0  0
  1 33  1  0  0  0  0
  2  4  2  0  0  0  0
  2 34  1  0  0  0  0
  3  5  1  0  0  0  0
  3 35  1  0  0  0  0
  4  6  1  0  0  0  0
  4 36  1  0  0  0  0
  5  6  2  0  0  0  0
  5  7  1  0  0  0  0
  6 30  1  0  0  0  0
  7  8  1  0  0  0  0
  7 25  2  0  0  0  0
  8  9  1  0  0  0  0
  8 15  1  0  0  0  0
  8 16  1  0  0  0  0
  9 10  1  0  0  0  0
  9 17  1  0  0  0  0
  9 30  1  0  0  0  0
 10 37  1  0  0  0  0
 10 38  1  0  0  0  0
 10 39  1  0  0  0  0
 11 19  1  0  0  0  0
 11 40  1  0  0  0  0
 11 41  1  0  0  0  0
 11 42  1  0  0  0  0
 12 20  1  0  0  0  0
 12 43  1  0  0  0  0
 12 44  1  0  0  0  0
 12 45  1  0  0  0  0
 13 31  1  0  0  0  0
 13 46  1  0  0  0  0
 13 47  1  0  0  0  0
 13 48  1  0  0  0  0
 14 32  1  0  0  0  0
 14 49  1  0  0  0  0
 14 50  1  0  0  0  0
 14 51  1  0  0  0  0
 15 22  1  0  0  0  0
 15 52  1  0  0  0  0
 15 53  1  0  0  0  0
 16 23  1  0  0  0  0
 16 54  1  0  0  0  0
 16 55  1  0  0  0  0
 17 18  1  0  0  0  0
 17 56  1  0  0  0  0
 17 57  1  0  0  0  0
 18 21  1  0  0  0  0
 18 58  1  0  0  0  0
 18 59  1  0  0  0  0
 19 24  1  0  0  0  0
 19 60  1  0  0  0  0
 19 61  1  0  0  0  0
 20 24  1  0  0  0  0
 20 62  1  0  0  0  0
 20 63  1  0  0  0  0
 21 24  1  0  0  0  0
 21 64  1  0  0  0  0
 21 65  1  0  0  0  0
 22 31  1  0  0  0  0
 22 66  1  0  0  0  0
 22 67  1  0  0  0  0
 23 32  1  0  0  0  0
 23 68  1  0  0  0  0
 23 69  1  0  0  0  0
 24 70  1  0  0  0  0
 26 31  2  0  0  0  0
 27 31  2  0  0  0  0
 28 32  2  0  0  0  0
 29 32  2  0  0  0  0
M  CHG  1  24   1
M  END
$$$$
