
  -OEChem-05262117483D

 35 36  0     1  0  0  0  0  0999 V2000
    0.5619    4.0489   -2.8013 C   0  0  0  0  0  0  0  0  0  0  0  0
    0.0043    2.5885   -4.6413 C   0  0  0  0  0  0  0  0  0  0  0  0
    1.1137    2.9743   -2.1028 C   0  0  0  0  0  0  0  0  0  0  0  0
    0.5503    1.5021   -3.9563 C   0  0  0  0  0  0  0  0  0  0  0  0
   -0.0022    3.8735   -4.0752 C   0  0  0  0  0  0  0  0  0  0  0  0
    1.0924    1.7045   -2.6850 C   0  0  0  0  0  0  0  0  0  0  0  0
   -0.8048    0.1484    1.4413 C   0  0  0  0  0  0  0  0  0  0  0  0
   -0.1140    0.7367    0.2119 C   0  0  0  0  0  0  0  0  0  0  0  0
   -1.8693   -1.6165   -1.0179 C   0  0  0  0  0  0  0  0  0  0  0  0
   -0.7258   -0.8797   -1.7271 C   0  0  0  0  0  0  0  0  0  0  0  0
   -2.6640   -0.7480   -0.0345 C   0  0  0  0  0  0  0  0  0  0  0  0
    0.3512   -0.3347   -0.7853 C   0  0  1  0  0  0  0  0  0  0  0  0
   -0.5637    5.0498   -4.8377 C   0  0  0  0  0  0  0  0  0  0  0  0
   -1.9861   -0.5108    1.2370 N   0  0  0  0  0  0  0  0  0  0  0  0
   -0.3190    0.2613    2.5646 O   0  0  0  0  0  0  0  0  0  0  0  0
    2.1206   -0.7394   -2.7568 O   0  0  0  0  0  0  0  0  0  0  0  0
    2.7720    0.8287   -0.8335 O   0  0  0  0  0  0  0  0  0  0  0  0
    1.7718    0.3087   -1.7804 S   0  0  0  0  0  0  0  0  0  0  0  0
    0.5777    5.0397   -2.3534 H   0  0  0  0  0  0  0  0  0  0  0  0
   -0.4158    2.4372   -5.6329 H   0  0  0  0  0  0  0  0  0  0  0  0
    1.5744    3.1164   -1.1303 H   0  0  0  0  0  0  0  0  0  0  0  0
    0.5780    0.5128   -4.4024 H   0  0  0  0  0  0  0  0  0  0  0  0
   -0.7769    1.4489   -0.2926 H   0  0  0  0  0  0  0  0  0  0  0  0
    0.7458    1.2795    0.6041 H   0  0  0  0  0  0  0  0  0  0  0  0
   -2.5589   -1.9807   -1.7886 H   0  0  0  0  0  0  0  0  0  0  0  0
   -1.4881   -2.4970   -0.4878 H   0  0  0  0  0  0  0  0  0  0  0  0
   -0.2524   -1.5568   -2.4431 H   0  0  0  0  0  0  0  0  0  0  0  0
   -1.1486   -0.0461   -2.3011 H   0  0  0  0  0  0  0  0  0  0  0  0
   -2.9259    0.2072   -0.5091 H   0  0  0  0  0  0  0  0  0  0  0  0
   -3.6081   -1.2425    0.2069 H   0  0  0  0  0  0  0  0  0  0  0  0
    0.8419   -1.1543   -0.2460 H   0  0  0  0  0  0  0  0  0  0  0  0
    0.2194    5.5282   -5.4378 H   0  0  0  0  0  0  0  0  0  0  0  0
   -1.3591    4.7410   -5.5219 H   0  0  0  0  0  0  0  0  0  0  0  0
   -0.9682    5.8085   -4.1617 H   0  0  0  0  0  0  0  0  0  0  0  0
   -2.3878   -0.8992    2.0823 H   0  0  0  0  0  0  0  0  0  0  0  0
  1  3  1  0  0  0  0
  1  5  2  0  0  0  0
  1 19  1  0  0  0  0
  2  4  2  0  0  0  0
  2  5  1  0  0  0  0
  2 20  1  0  0  0  0
  3  6  2  0  0  0  0
  3 21  1  0  0  0  0
  4  6  1  0  0  0  0
  4 22  1  0  0  0  0
  5 13  1  0  0  0  0
  6 18  1  0  0  0  0
  7  8  1  0  0  0  0
  7 14  1  0  0  0  0
  7 15  2  0  0  0  0
  8 12  1  0  0  0  0
  8 23  1  0  0  0  0
  8 24  1  0  0  0  0
  9 10  1  0  0  0  0
  9 11  1  0  0  0  0
  9 25  1  0  0  0  0
  9 26  1  0  0  0  0
 10 12  1  0  0  0  0
 10 27  1  0  0  0  0
 10 28  1  0  0  0  0
 11 14  1  0  0  0  0
 11 29  1  0  0  0  0
 11 30  1  0  0  0  0
 12 18  1  0  0  0  0
 12 31  1  0  0  0  0
 13 32  1  0  0  0  0
 13 33  1  0  0  0  0
 13 34  1  0  0  0  0
 14 35  1  0  0  0  0
 16 18  2  0  0  0  0
 17 18  2  0  0  0  0
M  END
$$$$
