
  -OEChem-05262117483D

 32 33  0     1  0  0  0  0  0999 V2000
    0.8723   -2.2769    1.7296 C   0  0  0  0  0  0  0  0  0  0  0  0
   -0.4427   -2.7740    1.7129 C   0  0  0  0  0  0  0  0  0  0  0  0
    1.1380   -1.0376    1.1610 C   0  0  0  0  0  0  0  0  0  0  0  0
   -1.4787   -2.0354    1.1465 C   0  0  0  0  0  0  0  0  0  0  0  0
    0.1095   -0.2807    0.5716 C   0  0  0  0  0  0  0  0  0  0  0  0
   -1.2070   -0.7837    0.5776 C   0  0  0  0  0  0  0  0  0  0  0  0
    0.4048    1.0072   -0.0925 C   0  0  0  0  0  0  0  0  0  0  0  0
   -5.4095    2.3740   -0.0951 C   0  0  0  0  0  0  0  0  0  0  0  0
   -0.7630    1.6113   -0.8547 C   0  0  0  0  0  0  0  0  0  0  0  0
   -2.1047    1.3342   -0.1709 C   0  0  1  0  0  0  0  0  0  0  0  0
   -6.7176    1.8771    0.4964 C   0  0  0  0  0  0  0  0  0  0  0  0
   -2.2216    2.0458    1.1785 C   0  0  0  0  0  0  0  0  0  0  0  0
   -3.2577    1.7011   -1.1149 C   0  0  0  0  0  0  0  0  0  0  0  0
   -4.5667    1.4006   -0.5677 N   0  0  0  0  0  0  0  0  0  0  0  0
    1.5112    1.5338   -0.0756 O   0  0  0  0  0  0  0  0  0  0  0  0
   -5.1398    3.5725   -0.1585 O   0  0  0  0  0  0  0  0  0  0  0  0
   -2.2594   -0.1071    0.0335 O   0  0  0  0  0  0  0  0  0  0  0  0
    1.6708   -2.8593    2.1797 H   0  0  0  0  0  0  0  0  0  0  0  0
   -0.6608   -3.7432    2.1543 H   0  0  0  0  0  0  0  0  0  0  0  0
    2.1422   -0.6240    1.1441 H   0  0  0  0  0  0  0  0  0  0  0  0
   -2.5002   -2.4043    1.1420 H   0  0  0  0  0  0  0  0  0  0  0  0
   -0.5965    2.6844   -0.9720 H   0  0  0  0  0  0  0  0  0  0  0  0
   -0.7621    1.1597   -1.8560 H   0  0  0  0  0  0  0  0  0  0  0  0
   -6.8364    2.3072    1.4940 H   0  0  0  0  0  0  0  0  0  0  0  0
   -7.5421    2.2461   -0.1200 H   0  0  0  0  0  0  0  0  0  0  0  0
   -6.7853    0.7875    0.5627 H   0  0  0  0  0  0  0  0  0  0  0  0
   -3.1667    1.7881    1.6606 H   0  0  0  0  0  0  0  0  0  0  0  0
   -2.1960    3.1289    1.0326 H   0  0  0  0  0  0  0  0  0  0  0  0
   -1.4045    1.7666    1.8489 H   0  0  0  0  0  0  0  0  0  0  0  0
   -3.1247    1.1567   -2.0560 H   0  0  0  0  0  0  0  0  0  0  0  0
   -3.2321    2.7720   -1.3226 H   0  0  0  0  0  0  0  0  0  0  0  0
   -4.7912    0.4291   -0.4021 H   0  0  0  0  0  0  0  0  0  0  0  0
  1  2  1  0  0  0  0
  1  3  2  0  0  0  0
  1 18  1  0  0  0  0
  2  4  2  0  0  0  0
  2 19  1  0  0  0  0
  3  5  1  0  0  0  0
  3 20  1  0  0  0  0
  4  6  1  0  0  0  0
  4 21  1  0  0  0  0
  5  6  2  0  0  0  0
  5  7  1  0  0  0  0
  6 17  1  0  0  0  0
  7  9  1  0  0  0  0
  7 15  2  0  0  0  0
  8 11  1  0  0  0  0
  8 14  1  0  0  0  0
  8 16  2  0  0  0  0
  9 10  1  0  0  0  0
  9 22  1  0  0  0  0
  9 23  1  0  0  0  0
 10 12  1  0  0  0  0
 10 13  1  0  0  0  0
 10 17  1  0  0  0  0
 11 24  1  0  0  0  0
 11 25  1  0  0  0  0
 11 26  1  0  0  0  0
 12 27  1  0  0  0  0
 12 28  1  0  0  0  0
 12 29  1  0  0  0  0
 13 14  1  0  0  0  0
 13 30  1  0  0  0  0
 13 31  1  0  0  0  0
 14 32  1  0  0  0  0
M  END
$$$$
