17   
torsion grid (-165,)
C        4.4707180975   -2.2942329408   -1.9604427513
C        4.4494841933   -1.8224816969   -3.2433235480
C        2.8674804974   -0.7817037746   -1.6801587979
C        0.3894395519   -0.5963895582   -1.3490346509
C        1.8268027359    1.5014172472   -1.3340534754
C        1.7686942730    0.0007822375   -1.0079357906
N        3.5775462920   -1.7047216384   -1.0892286997
S        3.2583217819   -0.5703709865   -3.3868449817
H        5.1291737107   -3.0759497024   -1.5968046745
H        5.0573482973   -2.1247074432   -4.0860318279
H        0.1704946851   -0.4907794998   -2.4172824971
H       -0.3969575754   -0.0795081670   -0.7885807707
H        0.3514757154   -1.6601069728   -1.0969549794
H        1.6336162129    1.6868356087   -2.3967898815
H        2.8056810652    1.9244068777   -1.0890502813
H        1.0653215969    2.0409219782   -0.7617366613
H        1.9454762137   -0.1360026594    0.0639734812
17   
torsion grid (-150,)
C        4.3484697481   -2.3957027090   -2.0244526550
C        4.5179503778   -1.7543596492   -3.2203584806
C        2.8822853419   -0.7624696702   -1.6819552891
C        0.4211318355   -0.6248466808   -1.2793940451
C        1.7904335996    1.5131656078   -1.4013108569
C        1.7903392324    0.0298074996   -1.0075519070
N        3.4275768781   -1.8319072039   -1.1670391868
S        3.4809278790   -0.3671108549   -3.2915530557
H        4.8820355671   -3.2891765702   -1.7178917000
H        5.1849431021   -2.0054356845   -4.0346139441
H        0.1737942560   -0.5781022944   -2.3457663086
H       -0.3662083633   -0.1044348684   -0.7234093169
H        0.4264541312   -1.6747676698   -0.9744751387
H        1.5666446918    1.6449530768   -2.4662869813
H        2.7568537334    1.9836846652   -1.1961430981
H        1.0216078308    2.0507927498   -0.8376224048
H        1.9991602136   -0.0497996666    0.0649559048
17   
torsion grid (-135,)
C        4.2490037872   -2.4637271444   -2.0974403406
C        4.6047554044   -1.6962162052   -3.1725898613
C        2.8837840842   -0.7584688108   -1.6937583685
C        0.4382595483   -0.6435654449   -1.2084167341
C        1.7579342456    1.5115137428   -1.4701706884
C        1.8020494936    0.0474770230   -1.0147654191
N        3.2827027977   -1.9295705429   -1.2735166785
S        3.6926172972   -0.2231051077   -3.1639879535
H        4.6716847008   -3.4345339823   -1.8609170178
H        5.3365121356   -1.9058286659   -3.9416631838
H        0.1514225628   -0.6409258384   -2.2659723752
H       -0.3381704644   -0.1176559933   -0.6423981911
H        0.4791580950   -1.6806398898   -0.8664880655
H        1.5050492891    1.5922118208   -2.5336898087
H        2.7154417725    2.0161500391   -1.3071881139
H        0.9902528435    2.0539246665   -0.9098747892
H        2.0460826148    0.0248157373    0.0539674647
17   
torsion grid (-120,)
C        4.1613598720   -2.5103133082   -2.1791357835
C        4.6931380552   -1.6500712711   -3.1006797674
C        2.8797389820   -0.7568260465   -1.7083731174
C        0.4510258302   -0.6543230186   -1.1320061832
C        1.7257118148    1.5047679320   -1.5355972551
C        1.8097080789    0.0619795676   -1.0222385012
N        3.1446376294   -1.9996593686   -1.4033671887
S        3.8898033385   -0.1187215739   -3.0028363159
H        4.4826360454   -3.5355652786   -2.0281601535
H        5.4897388357   -1.8279242831   -3.8110444128
H        0.1216490717   -0.6950395782   -2.1762304146
H       -0.3083512075   -0.1166873721   -0.5541869535
H        0.5217858659   -1.6770831364   -0.7554264805
H        1.4448573674    1.5350845943   -2.5944100462
H        2.6754109119    2.0367076414   -1.4174941120
H        0.9635912818    2.0555102442   -0.9759882073
H        2.0917171935    0.0941770734    0.0380690062
17   
torsion grid (-105,)
C        4.0860044399   -2.5359984986   -2.2821670769
C        4.7811383192   -1.6165745319   -3.0189253010
C        2.8798186119   -0.7553975920   -1.7230888753
C        0.4698784421   -0.6664990086   -1.0542614322
C        1.6935637009    1.4907324360   -1.5979053035
C        1.8193792777    0.0711342405   -1.0291095924
N        3.0218906817   -2.0437889764   -1.5595876187
S        4.0766070716   -0.0485144999   -2.8076789211
H        4.3142570812   -3.5956610146   -2.2363774071
H        5.6385499533   -1.7719081514   -3.6605293335
H        0.1002882043   -0.7552438952   -2.0817174766
H       -0.2720969487   -0.1128492392   -0.4692075542
H        0.5679627355   -1.6721760413   -0.6410009460
H        1.3824018035    1.4700378368   -2.6480325523
H        2.6351744341    2.0459311338   -1.5306434675
H        0.9403296036    2.0514928712   -1.0361780686
H        2.1383689365    0.1565426104    0.0188698630
17   
torsion grid (-90,)
C        3.9981299398   -2.5350454330   -2.3995983118
C        4.8419750746   -1.5958859332   -2.9245078439
C        2.8725333855   -0.7390479141   -1.7301535887
C        0.4844252530   -0.6602083701   -0.9749436683
C        1.6530334593    1.4859328047   -1.6661926226
C        1.8204411787    0.0958765961   -1.0339143854
N        2.8964878040   -2.0446846367   -1.7323120438
S        4.2380509931   -0.0095114234   -2.5775587497
H        4.1366460675   -3.6081871740   -2.4782548037
H        5.7530145730   -1.7450361154   -3.4891251719
H        0.0894752248   -0.8224800488   -1.9833428244
H       -0.2482847555   -0.0775456022   -0.4068964155
H        0.6049364197   -1.6363139637   -0.5015311326
H        1.3246536281    1.4060807185   -2.7079441756
H        2.5832373198    2.0635917661   -1.6457150093
H        0.8997583657    2.0578648149   -1.1156525681
H        2.1726936191    0.2385666267   -0.0022698584
17   
torsion grid (-75,)
C        3.9224929763   -2.5214948721   -2.5309168500
C        4.8959072003   -1.6067432795   -2.8201190371
C        2.8779259756   -0.7342055425   -1.7199302746
C        0.5090794138   -0.6647155843   -0.8982435729
C        1.6197192492    1.4611001698   -1.7326777169
C        1.8283314910    0.1081062145   -1.0301217386
N        2.7946966126   -2.0222852677   -1.9133870329
S        4.3881945807   -0.0310084628   -2.3063087271
H        3.9800700701   -3.5817711553   -2.7532750708
H        5.8515329044   -1.7652852998   -3.3025492162
H        0.0895089506   -0.8850053457   -1.8848910908
H       -0.2162454005   -0.0646628698   -0.3389958739
H        0.6554960017   -1.6150797696   -0.3811658179
H        1.2708090361    1.3145298897   -2.7602834200
H        2.5399348025    2.0532065611   -1.7687023492
H        0.8683947633    2.0494160036   -1.1964863293
H        2.2035310792    0.3142678881   -0.0175977186
17   
torsion grid (-60,)
C        3.8674417809   -2.4571489715   -2.6760553805
C        4.9394665494   -1.6108221662   -2.7199660889
C        2.8914055256   -0.7176765283   -1.6950492090
C        0.5420862265   -0.6639527788   -0.8171228203
C        1.5803143313    1.4327119815   -1.8044566919
C        1.8381892060    0.1309482454   -1.0207539391
N        2.7226649114   -1.9469001304   -2.0986370119
S        4.5111931778   -0.0879680909   -2.0095789542
H        3.8621985133   -3.4734694914   -3.0554473006
H        5.9281332511   -1.7913513690   -3.1212277303
H        0.1114710551   -0.9580261853   -1.7785547700
H       -0.1877100461   -0.0478443336   -0.2817069321
H        0.7209782149   -1.5762775975   -0.2432589962
H        1.2120567385    1.2077703000   -2.8109389812
H        2.4873599576    2.0371142982   -1.9033750572
H        0.8266784535    2.0380226388   -1.2903783196
H        2.2283375878    0.4076887236   -0.0318250562
17   
torsion grid (-45,)
C        3.8355580158   -2.3704147702   -2.8352052550
C        4.9748464496   -1.6426107589   -2.6331988280
C        2.9100235355   -0.7163447504   -1.6758702302
C        0.5818609969   -0.6595059736   -0.7425549152
C        1.5603648315    1.3896617068   -1.8810828286
C        1.8585929746    0.1459159632   -1.0188680712
N        2.6811000991   -1.8418310582   -2.2948971331
S        4.6015364559   -0.2170383886   -1.7186105932
H        3.7867875947   -3.3104473208   -3.3745268543
H        5.9841638259   -1.8623886437   -2.9555898874
H        0.1383344146   -1.0158962847   -1.6758525121
H       -0.1489863602   -0.0289986108   -0.2256243345
H        0.7915944793   -1.5337001749   -0.1202354798
H        1.1670587621    1.0895605040   -2.8578912883
H        2.4590384003    1.9916718193   -2.0468757601
H        0.8129833687    2.0203925751   -1.3883387461
H        2.2638224185    0.4887486742   -0.0581162331
17   
torsion grid (-30,)
C        3.8281052559   -2.2703184287   -2.9471438914
C        4.9911558504   -1.6931620366   -2.5174668828
C        2.9099108097   -0.7141197167   -1.6562952714
C        0.6078255675   -0.6639436824   -0.6614170368
C        1.5123290250    1.3409623049   -1.9364833120
C        1.8583806247    0.1561179797   -1.0120285390
N        2.6644680152   -1.7126422935   -2.4601818205
S        4.6259374757   -0.3825947361   -1.4420570762
H        3.7686431446   -3.1163441133   -3.6236750614
H        6.0104971668   -1.9651995913   -2.7578242016
H        0.1668639731   -1.0970055539   -1.5627141662
H       -0.1371541711   -0.0221121542   -0.1796665557
H        0.8517146185   -1.4843530708    0.0199912934
H        1.0903891188    0.9753718819   -2.8779890350
H        2.3988906533    1.9390708574   -2.1693337714
H        0.7744474843    1.9930287777   -1.4570253068
H        2.2801913713    0.5587951377   -0.0828814446
17   
torsion grid (-15,)
C        3.8372280978   -2.1725159789   -3.0529920382
C        4.9892611275   -1.7764126094   -2.4299494297
C        2.9201775944   -0.6934846722   -1.6752245433
C        0.6567321267   -0.6567499352   -0.6016749590
C        1.4679661807    1.3151737041   -1.9893908799
C        1.8735683416    0.1802861385   -1.0287778466
N        2.6802417120   -1.5579828288   -2.6239166837
S        4.6185341788   -0.5726312377   -1.2382747668
H        3.7823760759   -2.9198742990   -3.8375537048
H        6.0012960238   -2.1211368113   -2.5962954075
H        0.1979996702   -1.1333418208   -1.4719793543
H       -0.0895680643   -0.0176469949   -0.1180666214
H        0.9458947534   -1.4435940998    0.1018427810
H        1.0263057500    0.8992212518   -2.8998603550
H        2.3330958020    1.9215622559   -2.2759015797
H        0.7309597972    1.9708283005   -1.5133469670
H        2.3172313996    0.6296466040   -0.1322145215
17   
torsion grid (0,)
C        3.8564395493   -2.0775804706   -3.1207394414
C        4.9559055872   -1.8710842540   -2.3323610381
C        2.9207707115   -0.6568144364   -1.6953364043
C        0.6984594061   -0.6496537894   -0.5478092179
C        1.3960314777    1.2972673145   -2.0306932881
C        1.8717135042    0.2127515262   -1.0472095296
N        2.7181183113   -1.3918773312   -2.7557650967
S        4.5558139824   -0.7605370621   -1.0624066024
H        3.8296912054   -2.7286544681   -3.9882211943
H        5.9458882964   -2.2974075667   -2.4264349114
H        0.2300106679   -1.1727838024   -1.3861574553
H       -0.0555793381   -0.0202117990   -0.0632873123
H        1.0374858067   -1.3989580700    0.1745304034
H        0.9461160137    0.8356502002   -2.9141164770
H        2.2297640953    1.9245907430   -2.3616206521
H        0.6488987112    1.9404451144   -1.5535723839
H        2.3309828672    0.7067263173   -0.1826741016
17   
torsion grid (15,)
C        3.9014085714   -1.9933414248   -3.1895128046
C        4.9133277670   -1.9883327176   -2.2685055231
C        2.9420949638   -0.6322835025   -1.7218626613
C        0.7654195690   -0.6457799351   -0.4953928534
C        1.3462348936    1.2678414291   -2.0679848155
C        1.8928467584    0.2341189214   -1.0698006641
N        2.7976239476   -1.2303115456   -2.8735716378
S        4.4742316685   -0.9753925207   -0.9314329836
H        3.9175328410   -2.5425841480   -4.1250140768
H        5.8647362481   -2.5022801303   -2.3059254001
H        0.2736586574   -1.2015754171   -1.2993192380
H        0.0162845514   -0.0239788368    0.0064430271
H        1.1547870282   -1.3673556503    0.2298424405
H        0.8782236733    0.7653543882   -2.9185594750
H        2.1466427309    1.9080038813   -2.4516711048
H        0.5985600740    1.9031051316   -1.5814502089
H        2.3678597347    0.7709810159   -0.2399034859
17   
torsion grid (30,)
C        3.9684778328   -1.8784711004   -3.2456964471
C        4.8520704253   -2.0813536149   -2.2217233194
C        2.9480739410   -0.6075724467   -1.7374780249
C        0.8092084273   -0.6216040480   -0.4412677328
C        1.2886039846    1.2363084792   -2.1091736383
C        1.8954249727    0.2595435128   -1.0908336853
N        2.9013812410   -1.0513360860   -2.9640249043
S        4.3357415947   -1.1925793754   -0.8249548504
H        4.0565643888   -2.3126457911   -4.2360108538
H        5.7555618575   -2.6767526599   -2.2157201818
H        0.3031815730   -1.2219301536   -1.2039394094
H        0.0619180139    0.0042151688    0.0581792565
H        1.2374049070   -1.3029024053    0.3006389093
H        0.8075297152    0.6913180589   -2.9251879399
H        2.0575506201    1.8814543777   -2.5443499383
H        0.5403215286    1.8689021291   -1.6203744980
H        2.3818501274    0.8425773863   -0.2990953239
17   
torsion grid (45,)
C        4.0525468947   -1.7647149949   -3.2966854526
C        4.7800433059   -2.1863264431   -2.2189674817
C        2.9428451651   -0.6247053444   -1.7456988983
C        0.8473046205   -0.6006402512   -0.3647260658
C        1.2387585146    1.1740814587   -2.1395303403
C        1.8976980422    0.2550913780   -1.1020554485
N        3.0224845319   -0.8889138526   -3.0209130101
S        4.1572326541   -1.4571760241   -0.7737910307
H        4.2329757548   -2.0649930910   -4.3234210449
H        5.6268997502   -2.8595727551   -2.1958724337
H        0.3268616601   -1.2556071244   -1.0711697398
H        0.1051398390    0.0446491434    0.1169275667
H        1.3055797285   -1.2278913933    0.4060252299
H        0.7131427082    0.5885633443   -2.8982600745
H        1.9823553405    1.7900306743   -2.6525170917
H        0.5184642973    1.8340430608   -1.6450391392
H        2.4052254806    0.8834597867   -0.3588473293
17   
torsion grid (60,)
C        4.1668522526   -1.6213895759   -3.3128126496
C        4.7089286722   -2.2542793462   -2.2297437845
C        2.9214549976   -0.6337731531   -1.7589837115
C        0.8706850506   -0.5480124978   -0.2953965896
C        1.1830018578    1.1250259153   -2.1801113987
C        1.8860330485    0.2645168539   -1.1225256232
N        3.1645604630   -0.7134314597   -3.0383983011
S        3.9333843481   -1.7007467554   -0.7808527818
H        4.4673502578   -1.7843091919   -4.3423908825
H        5.4965823095   -2.9958846778   -2.2035356667
H        0.3305327258   -1.2527505733   -0.9363323978
H        0.1406799333    0.1232550946    0.1684319516
H        1.3564356502   -1.1195493522    0.5016045186
H        0.6332393326    0.4983873494   -2.8881687930
H        1.9008993309    1.7171965930   -2.7524886538
H        0.4755441796    1.8034842762   -1.6921972034
H        2.4174601470    0.9355964338   -0.4340353920
17   
torsion grid (75,)
C        4.2869788504   -1.5040837007   -3.3060691014
C        4.6382089246   -2.3260133974   -2.2721382294
C        2.9089831800   -0.6474926903   -1.7860053411
C        0.9151977228   -0.5053681223   -0.2344785168
C        1.1293599287    1.0666583916   -2.2173455015
C        1.8842423810    0.2641879447   -1.1490456527
N        3.3165581505   -0.5655997424   -3.0232108658
S        3.7101879448   -1.9234752730   -0.8644972555
H        4.7094562124   -1.5458245574   -4.3044250333
H        5.3626367451   -3.1298878054   -2.2629074005
H        0.3518759774   -1.2504100072   -0.8061216740
H        0.2013472262    0.1875452469    0.2220231019
H        1.4373872688   -1.0242488124    0.5759320411
H        0.5499894650    0.4003301761   -2.8641659939
H        1.8174702932    1.6282917368   -2.8522245718
H        0.4400475738    1.7672290826   -1.7346795157
H        2.4400989517    0.9746034785   -0.5207022666
17   
torsion grid (90,)
C        4.3988899711   -1.4163971261   -3.2518839247
C        4.5544767013   -2.3983353714   -2.3131532346
C        2.9031661536   -0.6535188619   -1.7953257544
C        0.9543361260   -0.4642837967   -0.1803768935
C        1.0820140963    1.0078365438   -2.2457948461
C        1.8814536186    0.2662009738   -1.1636889564
N        3.4703024642   -0.4430009651   -2.9526090416
S        3.4869274591   -2.1060531295   -0.9802646048
H        4.9414514840   -1.3617478786   -4.1897790897
H        5.2108197820   -3.2584033061   -2.3361400378
H        0.3759662336   -1.2419170193   -0.6905052091
H        0.2502815267    0.2450326005    0.2654946255
H        1.5091235764   -0.9345084081    0.6384565617
H        0.4922882431    0.3019019970   -2.8399887835
H        1.7449532877    1.5457831819   -2.9259048502
H        0.3965290183    1.7223132379   -1.7781723055
H        2.4505320946    1.0141031101   -0.5931412267
17   
torsion grid (105,)
C        4.5114777942   -1.3483688321   -3.1870071634
C        4.4812898479   -2.4534946062   -2.3813087776
C        2.9184686303   -0.6474902654   -1.8053119371
C        1.0085794498   -0.4212023284   -0.1412541325
C        1.0469528372    0.9442801442   -2.2814846438
C        1.8924613513    0.2751463786   -1.1845509794
N        3.6316698537   -0.3417187073   -2.8563672481
S        3.2925749197   -2.2369117709   -1.1404018224
H        5.1643997780   -1.2226746908   -4.0443136645
H        5.0700598965   -3.3586709861   -2.4516260519
H        0.4173589239   -1.2236047352   -0.5958152968
H        0.3128186576    0.2999777519    0.2982541709
H        1.5974227625   -0.8506643692    0.6761970228
H        0.4418582900    0.1981898451   -2.8081233678
H        1.6840185586    1.4430311786   -3.0144141609
H        0.3711931971    1.6827515009   -1.8372408730
H        2.4625122018    1.0613237450   -0.6704721454
17   
torsion grid (120,)
C        4.5976581100   -1.2924701327   -3.1069962362
C        4.3944374382   -2.4837874423   -2.4655040468
C        2.9237014567   -0.6340904935   -1.8018931742
C        1.0499183940   -0.3815142422   -0.0984904971
C        1.0009894320    0.8807852751   -2.3015767881
C        1.8902765757    0.2868889091   -1.1936005654
N        3.7673809201   -0.2614055921   -2.7277148130
S        3.1009265629   -2.3206405112   -1.3252564389
H        5.3488034724   -1.1178515723   -3.8701755621
H        4.9190076438   -3.4209419582   -2.5973751893
H        0.4602882942   -1.2130627403   -0.5006676263
H        0.3501298997    0.3432100891    0.3285667928
H        1.6716302885   -0.7650689025    0.7171055325
H        0.4045718553    0.0946960698   -2.7779182010
H        1.6102804366    1.3611968928   -3.0702293755
H        0.3148456817    1.6228307173   -1.8794913950
H        2.4551524775    1.1086332775   -0.7348311558
17   
torsion grid (135,)
C        4.6787001478   -1.2643085454   -3.0112623436
C        4.3157086378   -2.5029850723   -2.5579451003
C        2.9324964319   -0.6224750213   -1.7973795614
C        1.0953734222   -0.3378352667   -0.0612032510
C        0.9612194967    0.8161690695   -2.3205614570
C        1.8922370329    0.2992345885   -1.2065826425
N        3.8967980438   -0.2154521935   -2.5794750119
S        2.9256503081   -2.3638703071   -1.5330006327
H        5.5205166516   -1.0652038241   -3.6660681686
H        4.7797380923   -3.4598879186   -2.7576765429
H        0.5068822276   -1.1938936962   -0.4110288185
H        0.3945721423    0.3912525634    0.3568688490
H        1.7495067885   -0.6799923101    0.7469302992
H        0.3785124328   -0.0070332888   -2.7489265994
H        1.5400670073    1.2806430408   -3.1226280269
H        0.2617315898    1.5568403666   -1.9181636716
H        2.4505362792    1.1537639552   -0.8061614702
17   
torsion grid (150,)
C        4.7580182282   -1.2525218564   -2.8954275465
C        4.2510655433   -2.4992718622   -2.6528397324
C        2.9366711779   -0.6106383558   -1.7976420332
C        1.1442966329   -0.2903437369   -0.0272691117
C        0.9161391647    0.7568691390   -2.3320983375
C        1.8919983947    0.3135879691   -1.2237663147
N        4.0129731422   -0.1978937735   -2.4119663617
S        2.7653939333   -2.3643156310   -1.7699408634
H        5.6840097872   -1.0506370257   -3.4233951856
H        4.6630131250   -3.4622414617   -2.9247207076
H        0.5586436447   -1.1686082271   -0.3227106234
H        0.4456118361    0.4430629579    0.3872605582
H        1.8337871654   -0.5928073937    0.7668143133
H        0.3456887539   -0.0982742091   -2.7113435309
H        1.4583177717    1.2054490704   -3.1688518137
H        0.2064787391    1.4941037413   -1.9413052056
H        2.4454583956    1.1959528138   -0.8841623552
17   
torsion grid (165,)
C        4.6941052514   -2.0012145852   -1.9392436659
C        4.3244727857   -1.9865547362   -3.2552725582
C        2.7919828488   -0.8808146795   -1.6873553330
C        0.2952858542   -0.5081400337   -1.4799692045
C        1.9277056118    1.4219516930   -1.2025202458
C        1.6990860956   -0.0905841079   -1.0145831408
N        3.8278022977   -1.3764670838   -1.0654480535
S        2.8125321471   -1.1552878941   -3.4293145436
H        5.5961815513   -2.4632897941   -1.5524314924
H        4.8362854606   -2.4147853467   -4.1071309015
H        0.1395195183   -0.2734188192   -2.5390978865
H       -0.4668769555    0.0303557173   -0.9076097291
H        0.1336816489   -1.5816791439   -1.3437757761
H        1.8422749285    1.7025974317   -2.2580695159
H        2.9221550772    1.7129362248   -0.8519826894
H        1.1813868493    1.9915074107   -0.6383299691
H        1.8030391814   -0.3229167915    0.0503891933
17   
torsion grid (180,)
C        4.5928963836   -2.1564683555   -1.9368712788
C        4.3818270992   -1.8997261770   -3.2626055398
C        2.8276091629   -0.8295134353   -1.6905948253
C        0.3369982216   -0.5527427832   -1.4145707347
C        1.8763272270    1.4668133528   -1.2677438972
C        1.7336489243   -0.0446282596   -1.0137888847
N        3.7147259999   -1.5511986035   -1.0604058896
S        3.0165433315   -0.8457972146   -3.4446888392
H        5.3834371102   -2.7872022397   -1.5444169365
H        4.9365805223   -2.2600007237   -4.1190440528
H        0.1429377512   -0.3790189918   -2.4787719163
H       -0.4349417478   -0.0270727998   -0.8427725311
H        0.2380244122   -1.6253504912   -1.2228279777
H        1.7306239710    1.7057631672   -2.3270436811
H        2.8676499705    1.8240497254   -0.9732815458
H        1.1255229201    2.0193915517   -0.6931761140
H        1.8810509655   -0.2348319888    0.0542003355
