
  -OEChem-05262117483D

 30 31  0     1  0  0  0  0  0999 V2000
   -0.2519   -5.4936    0.0571 C   0  0  0  0  0  0  0  0  0  0  0  0
   -0.4645   -4.5323   -0.9384 C   0  0  0  0  0  0  0  0  0  0  0  0
    0.5220   -5.1692    1.1745 C   0  0  0  0  0  0  0  0  0  0  0  0
    0.0940   -3.2575   -0.8226 C   0  0  0  0  0  0  0  0  0  0  0  0
    1.0760   -3.8895    1.2912 C   0  0  0  0  0  0  0  0  0  0  0  0
    0.8737   -2.9244    0.2962 C   0  0  0  0  0  0  0  0  0  0  0  0
   -1.2081    0.8226    1.6516 C   0  0  0  0  0  0  0  0  0  0  0  0
   -1.5095    1.7351    0.4547 C   0  0  0  0  0  0  0  0  0  0  0  0
   -0.6781   -0.5516    1.2325 C   0  0  0  0  0  0  0  0  0  0  0  0
   -0.2808    1.9494   -0.4360 C   0  0  0  0  0  0  0  0  0  0  0  0
    1.5004   -1.5503    0.4480 C   0  0  0  0  0  0  0  0  0  0  0  0
    0.5583   -0.4099    0.4347 N   0  0  1  0  0  0  0  0  0  0  0  0
   -0.7858   -0.2458   -1.8244 O   0  0  0  0  0  0  0  0  0  0  0  0
    1.6330    0.5042   -1.6856 O   0  0  0  0  0  0  0  0  0  0  0  0
    0.3164    0.3608   -1.0549 S   0  0  0  0  0  0  0  0  0  0  0  0
   -0.6879   -6.4848   -0.0373 H   0  0  0  0  0  0  0  0  0  0  0  0
   -1.0682   -4.7759   -1.8090 H   0  0  0  0  0  0  0  0  0  0  0  0
    0.6917   -5.9066    1.9550 H   0  0  0  0  0  0  0  0  0  0  0  0
   -0.0947   -2.5173   -1.5945 H   0  0  0  0  0  0  0  0  0  0  0  0
    1.6746   -3.6411    2.1658 H   0  0  0  0  0  0  0  0  0  0  0  0
   -0.4654    1.3013    2.3007 H   0  0  0  0  0  0  0  0  0  0  0  0
   -2.1198    0.6830    2.2425 H   0  0  0  0  0  0  0  0  0  0  0  0
   -2.3136    1.3075   -0.1528 H   0  0  0  0  0  0  0  0  0  0  0  0
   -1.8539    2.7142    0.8049 H   0  0  0  0  0  0  0  0  0  0  0  0
   -0.4112   -1.1347    2.1179 H   0  0  0  0  0  0  0  0  0  0  0  0
   -1.4397   -1.1219    0.6855 H   0  0  0  0  0  0  0  0  0  0  0  0
   -0.5130    2.5352   -1.3293 H   0  0  0  0  0  0  0  0  0  0  0  0
    0.5590    2.4038    0.0943 H   0  0  0  0  0  0  0  0  0  0  0  0
    2.0330   -1.4988    1.4035 H   0  0  0  0  0  0  0  0  0  0  0  0
    2.2380   -1.3634   -0.3362 H   0  0  0  0  0  0  0  0  0  0  0  0
  1  2  1  0  0  0  0
  1  3  2  0  0  0  0
  1 16  1  0  0  0  0
  2  4  2  0  0  0  0
  2 17  1  0  0  0  0
  3  5  1  0  0  0  0
  3 18  1  0  0  0  0
  4  6  1  0  0  0  0
  4 19  1  0  0  0  0
  5  6  2  0  0  0  0
  5 20  1  0  0  0  0
  6 11  1  0  0  0  0
  7  8  1  0  0  0  0
  7  9  1  0  0  0  0
  7 21  1  0  0  0  0
  7 22  1  0  0  0  0
  8 10  1  0  0  0  0
  8 23  1  0  0  0  0
  8 24  1  0  0  0  0
  9 12  1  0  0  0  0
  9 25  1  0  0  0  0
  9 26  1  0  0  0  0
 10 15  1  0  0  0  0
 10 27  1  0  0  0  0
 10 28  1  0  0  0  0
 11 12  1  0  0  0  0
 11 29  1  0  0  0  0
 11 30  1  0  0  0  0
 12 15  1  0  0  0  0
 13 15  2  0  0  0  0
 14 15  2  0  0  0  0
M  END
$$$$
