27
0 1 C14FH11O
C                     2.111744726519    -0.844737572548    -0.024916383049
C                     7.742974012414    -2.417227305302     2.484964237271
C                     0.848998967833    -0.571228060753     0.507193834645
C                     8.154535555393    -1.149469836257     2.054929424791
C                     3.134599739190    -1.248832425084     0.830152945904
C                     6.404167030854    -2.640223391520     2.802115332304
C                     0.622701789507    -0.716329901865     1.878726415522
C                     7.227947418407    -0.109750808440     1.946904802996
C                     2.909432057869    -1.411261205564     2.208156289838
C                     5.445392669007    -1.621344992126     2.673200868605
C                     1.628807872492    -1.149185731596     2.753079353623
C                     5.895223746934    -0.364929468196     2.254888320903
C                     4.021696074165    -1.926818617231     3.057393270996
C                     1.311399390957    -1.299331054867     4.222458901587
O                     3.818361546042    -2.640504628040     4.036618511665
F                     5.020187635762     0.668382239619     2.173000417722
H                     2.298431995773    -0.737696484808    -1.089901119667
H                     8.464898291081    -3.223541124788     2.576478180837
H                     0.041400136743    -0.241555241180    -0.141732691522
H                     9.197425921065    -0.964893655983     1.812192864281
H                     4.119254311581    -1.459465031914     0.423090192398
H                     6.069345174143    -3.610720081645     3.155849506264
H                    -0.361449688819    -0.490973023816     2.282749268207
H                     7.519911165200     0.889955654073     1.640112494740
H                     1.242387454124    -2.354160695599     4.501564504718
H                     2.089308189589    -0.864511268586     4.855311892234
H                     0.360006945364    -0.812326325662     4.454100986703
