27
0 1 C14FH11O
C                     2.002400484929    -0.800080900418    -0.146677820805
C                     4.511772110858    -4.663061822181     5.615722197537
C                     0.881429508520    -0.313722111375     0.532817764667
C                     3.402352443237    -5.516024867082     5.551626057696
C                     2.994375324429    -1.467166655871     0.568537617979
C                     4.679875840663    -3.673237003229     4.650122232856
C                     0.770568994302    -0.495504183059     1.913234934572
C                     2.468207137090    -5.376570436914     4.522683353351
C                     2.865692508055    -1.686062020880     1.949789982984
C                     3.740481054252    -3.490861189423     3.620379026269
C                     1.744787705256    -1.186717741682     2.647692637888
C                     2.652030409320    -4.368457052474     3.581796583545
C                     3.997665121008    -2.414777214817     2.605459491548
C                     1.561751827549    -1.325210212349     4.144451984069
O                     5.159620052159    -2.148010965884     2.309104632261
F                     1.736405522364    -4.264977136858     2.587036943682
H                     2.104949588415    -0.653492822777    -1.218461362724
H                     5.241664300746    -4.776092296344     6.412048945486
H                     0.101461035764     0.217730508383    -0.006681947098
H                     3.266170778321    -6.295106946843     6.296684058976
H                     3.883635057552    -1.836928570355     0.066978806238
H                     5.541647262490    -3.013065080328     4.670168910250
H                    -0.089935196276    -0.085851816205     2.437636649006
H                     1.609289044074    -6.034747785072     4.434069015144
H                     1.090977889455    -2.279453515496     4.403097162021
H                     2.506232409129    -1.269338047289     4.690177740890
H                     0.912208693512    -0.529029300348     4.518638111081
