
  -OEChem-05262117483D

 26 27  0     0  0  0  0  0  0999 V2000
    2.1255    3.0421    5.9808 C   0  0  0  0  0  0  0  0  0  0  0  0
    1.5594   -1.3495    0.1461 C   0  0  0  0  0  0  0  0  0  0  0  0
    1.4451    2.0475    6.6953 C   0  0  0  0  0  0  0  0  0  0  0  0
    2.3180    2.8847    4.6059 C   0  0  0  0  0  0  0  0  0  0  0  0
    0.3307   -0.7614    0.4598 C   0  0  0  0  0  0  0  0  0  0  0  0
    2.4913   -1.6030    1.1584 C   0  0  0  0  0  0  0  0  0  0  0  0
    0.9672    0.9092    6.0459 C   0  0  0  0  0  0  0  0  0  0  0  0
    1.8415    1.7501    3.9387 C   0  0  0  0  0  0  0  0  0  0  0  0
    0.0450   -0.4244    1.7863 C   0  0  0  0  0  0  0  0  0  0  0  0
    2.2277   -1.2762    2.4957 C   0  0  0  0  0  0  0  0  0  0  0  0
    1.1679    0.7638    4.6675 C   0  0  0  0  0  0  0  0  0  0  0  0
    0.9887   -0.6800    2.7797 C   0  0  0  0  0  0  0  0  0  0  0  0
    3.2227   -1.5485    3.5957 C   0  0  0  0  0  0  0  0  0  0  0  0
    0.6550   -0.3872    4.1003 O   0  0  0  0  0  0  0  0  0  0  0  0
    2.4987    3.9263    6.4899 H   0  0  0  0  0  0  0  0  0  0  0  0
    1.7908   -1.6163   -0.8817 H   0  0  0  0  0  0  0  0  0  0  0  0
    1.2875    2.1567    7.7653 H   0  0  0  0  0  0  0  0  0  0  0  0
    2.8422    3.6498    4.0387 H   0  0  0  0  0  0  0  0  0  0  0  0
   -0.4012   -0.5658   -0.3193 H   0  0  0  0  0  0  0  0  0  0  0  0
    3.4418   -2.0698    0.9095 H   0  0  0  0  0  0  0  0  0  0  0  0
    0.4410    0.1267    6.5848 H   0  0  0  0  0  0  0  0  0  0  0  0
    1.9911    1.6368    2.8702 H   0  0  0  0  0  0  0  0  0  0  0  0
   -0.8995    0.0338    2.0652 H   0  0  0  0  0  0  0  0  0  0  0  0
    3.6463   -0.6172    3.9879 H   0  0  0  0  0  0  0  0  0  0  0  0
    2.7461   -2.0592    4.4380 H   0  0  0  0  0  0  0  0  0  0  0  0
    4.0453   -2.1693    3.2317 H   0  0  0  0  0  0  0  0  0  0  0  0
  1  3  1  0  0  0  0
  1  4  2  0  0  0  0
  1 15  1  0  0  0  0
  2  5  1  0  0  0  0
  2  6  2  0  0  0  0
  2 16  1  0  0  0  0
  3  7  2  0  0  0  0
  3 17  1  0  0  0  0
  4  8  1  0  0  0  0
  4 18  1  0  0  0  0
  5  9  2  0  0  0  0
  5 19  1  0  0  0  0
  6 10  1  0  0  0  0
  6 20  1  0  0  0  0
  7 11  1  0  0  0  0
  7 21  1  0  0  0  0
  8 11  2  0  0  0  0
  8 22  1  0  0  0  0
  9 12  1  0  0  0  0
  9 23  1  0  0  0  0
 10 12  2  0  0  0  0
 10 13  1  0  0  0  0
 11 14  1  0  0  0  0
 12 14  1  0  0  0  0
 13 24  1  0  0  0  0
 13 25  1  0  0  0  0
 13 26  1  0  0  0  0
M  END
$$$$
