21
0 1 C7H10O2S2
C                     1.819290739375    -0.671583793494    -6.595572248323
C                     1.005301146239    -0.121529811599    -5.561131191671
C                     2.424694022204    -1.846974957366    -6.218588260853
C                     1.017143857041    -0.900814762027    -4.429817298510
C                     0.751424299463     0.383014882553    -0.447509138286
C                     2.040006722702     1.400034488786    -2.406935877493
C                     1.417713759633     0.142981216357    -1.804906707936
O                    -0.825426710774     0.525026577467    -3.240511642139
O                    -0.309768961816    -1.827034189499    -2.352433466475
S                     2.003715437380    -2.319277508500    -4.609040359163
S                     0.134891488542    -0.546561512849    -2.926580013630
H                     1.944942365185    -0.222727952125    -7.575157213076
H                     0.424621578328     0.791622113833    -5.631627560540
H                     3.082474709709    -2.475899706825    -6.805993263645
H                    -0.018677732992     1.155507716480    -0.525627722779
H                     0.296446576281    -0.530757683078    -0.058920728512
H                     1.509956311425     0.723806011661     0.264176291620
H                     1.278436291616     2.169329568329    -2.561386253168
H                     2.531635259496     1.196063625068    -3.361669585036
H                     2.792433569558     1.793173473314    -1.715705972586
H                     2.155285374495    -0.662742448828    -1.727362772851
