30
0 1 C11H15NO2S
C                     5.337461346446    -1.039380481404     3.132781147620
C                     4.510446611905    -2.165219147303     3.153126111624
C                     5.202122221609    -0.097394816911     2.104355560537
C                     3.550804785733    -2.346979549180     2.149621611976
C                     4.246266848883    -0.283112337176     1.104470908182
C                     3.413734907452    -1.412248364484     1.117723082485
C                    -0.015946458904     1.152032620321     1.066761269182
C                    -0.762121823156     1.521463264579    -0.222188858133
C                     0.565643992322    -0.262423164563     1.031269062615
C                     0.133805336442     1.399588069599    -1.458259254014
C                     2.391064990386    -1.609020153258     0.020116327698
N                     1.523692211908    -0.413619888867    -0.088269097703
O                    -0.393199871659    -1.196708580960    -1.707784147408
O                     1.818613784136    -0.349699748073    -2.625890118759
S                     0.762395063809    -0.287894606880    -1.609749311828
H                     6.081955837498    -0.894419904149     3.911368917657
H                     4.607148884017    -2.899118505160     3.949137702794
H                     5.844721968547     0.779286241620     2.083255047895
H                     2.904575348806    -3.222027667382     2.171407816572
H                     4.132636610561     0.447364387152     0.307779551843
H                     0.803673754382     1.859966649479     1.236254110333
H                    -0.697873973500     1.230053121818     1.920194514494
H                    -1.633871161755     0.872202039119    -0.353193619440
H                    -1.130768930594     2.551333235567    -0.164658833790
H                     1.133474465503    -0.449004720086     1.945941414716
H                    -0.230606236602    -1.018314275321     0.966193934350
H                    -0.409851422154     1.582830749760    -2.388825671184
H                     1.013121739816     2.046101801690    -1.415039477931
H                     2.895920904239    -1.730849039941    -0.941381963256
H                     1.796457467707    -2.513524905017     0.206042020986
