
  -OEChem-05262117483D

 28 29  0     0  0  0  0  0  0999 V2000
   -6.3562    0.8399    1.7275 C   0  0  0  0  0  0  0  0  0  0  0  0
   -5.4275   -0.1274    2.1128 C   0  0  0  0  0  0  0  0  0  0  0  0
   -5.8506    1.9698    1.0850 C   0  0  0  0  0  0  0  0  0  0  0  0
   -3.7311    1.1433    1.2751 C   0  0  0  0  0  0  0  0  0  0  0  0
   -2.1823    2.4537   -1.1238 C   0  0  0  0  0  0  0  0  0  0  0  0
   -0.5194    0.8033   -0.6107 C   0  0  0  0  0  0  0  0  0  0  0  0
   -2.0604    2.2079   -2.6181 C   0  0  0  0  0  0  0  0  0  0  0  0
   -0.3058    0.4779   -2.0839 C   0  0  0  0  0  0  0  0  0  0  0  0
   -2.2440    1.3136    1.0418 C   0  0  0  0  0  0  0  0  0  0  0  0
   -4.1129    0.0147    1.8863 N   0  0  0  0  0  0  0  0  0  0  0  0
   -4.5384    2.1326    0.8586 N   0  0  0  0  0  0  0  0  0  0  0  0
   -1.8959    1.2236   -0.3915 N   0  0  0  0  0  0  0  0  0  0  0  0
   -0.6602    1.6946   -2.9218 N   0  3  0  0  0  0  0  0  0  0  0  0
   -7.4176    0.7207    1.9189 H   0  0  0  0  0  0  0  0  0  0  0  0
   -5.7371   -1.0414    2.6160 H   0  0  0  0  0  0  0  0  0  0  0  0
   -6.5065    2.7707    0.7487 H   0  0  0  0  0  0  0  0  0  0  0  0
   -1.5108    3.2830   -0.8225 H   0  0  0  0  0  0  0  0  0  0  0  0
   -3.2029    2.7739   -0.9042 H   0  0  0  0  0  0  0  0  0  0  0  0
   -0.3175   -0.1097   -0.0448 H   0  0  0  0  0  0  0  0  0  0  0  0
    0.2214    1.5604   -0.2840 H   0  0  0  0  0  0  0  0  0  0  0  0
   -2.7522    1.4315   -2.9487 H   0  0  0  0  0  0  0  0  0  0  0  0
   -2.2085    3.1168   -3.2048 H   0  0  0  0  0  0  0  0  0  0  0  0
    0.7304    0.2158   -2.3070 H   0  0  0  0  0  0  0  0  0  0  0  0
   -0.9724   -0.3234   -2.4067 H   0  0  0  0  0  0  0  0  0  0  0  0
   -1.9073    2.2692    1.4736 H   0  0  0  0  0  0  0  0  0  0  0  0
   -1.7388    0.5032    1.5675 H   0  0  0  0  0  0  0  0  0  0  0  0
    0.0148    2.4429   -2.7223 H   0  0  0  0  0  0  0  0  0  0  0  0
   -0.5684    1.4758   -3.9200 H   0  0  0  0  0  0  0  0  0  0  0  0
  1  2  1  0  0  0  0
  1  3  2  0  0  0  0
  1 14  1  0  0  0  0
  2 10  2  0  0  0  0
  2 15  1  0  0  0  0
  3 11  1  0  0  0  0
  3 16  1  0  0  0  0
  4  9  1  0  0  0  0
  4 10  1  0  0  0  0
  4 11  2  0  0  0  0
  5  7  1  0  0  0  0
  5 12  1  0  0  0  0
  5 17  1  0  0  0  0
  5 18  1  0  0  0  0
  6  8  1  0  0  0  0
  6 12  1  0  0  0  0
  6 19  1  0  0  0  0
  6 20  1  0  0  0  0
  7 13  1  0  0  0  0
  7 21  1  0  0  0  0
  7 22  1  0  0  0  0
  8 13  1  0  0  0  0
  8 23  1  0  0  0  0
  8 24  1  0  0  0  0
  9 12  1  0  0  0  0
  9 25  1  0  0  0  0
  9 26  1  0  0  0  0
 13 27  1  0  0  0  0
 13 28  1  0  0  0  0
M  CHG  1  13   1
M  END
$$$$
