
  -OEChem-05262117483D

 26 26  0     0  0  0  0  0  0999 V2000
   -2.2276    3.7972    1.8332 C   0  0  0  0  0  0  0  0  0  0  0  0
   -2.3814    3.1666    3.0697 C   0  0  0  0  0  0  0  0  0  0  0  0
   -1.2350    3.3730    0.9446 C   0  0  0  0  0  0  0  0  0  0  0  0
   -1.5321    2.1117    3.4086 C   0  0  0  0  0  0  0  0  0  0  0  0
   -0.3678    2.3144    1.2513 C   0  0  0  0  0  0  0  0  0  0  0  0
   -0.5421    1.7042    2.5105 C   0  0  0  0  0  0  0  0  0  0  0  0
    0.6843    1.8881    0.2572 C   0  0  0  0  0  0  0  0  0  0  0  0
    2.1325    1.9884    4.2522 C   0  0  0  0  0  0  0  0  0  0  0  0
    3.1286    0.1076    3.0177 C   0  0  0  0  0  0  0  0  0  0  0  0
    2.0125    1.0645    3.1145 N   0  0  0  0  0  0  0  0  0  0  0  0
    0.0264   -0.1009    4.3616 O   0  0  0  0  0  0  0  0  0  0  0  0
    0.5684   -0.6751    1.9501 O   0  0  0  0  0  0  0  0  0  0  0  0
    0.4805    0.3171    3.0268 S   0  0  0  0  0  0  0  0  0  0  0  0
   -2.8808    4.6206    1.5560 H   0  0  0  0  0  0  0  0  0  0  0  0
   -3.1529    3.4877    3.7636 H   0  0  0  0  0  0  0  0  0  0  0  0
   -1.1287    3.8710   -0.0159 H   0  0  0  0  0  0  0  0  0  0  0  0
   -1.6249    1.5975    4.3596 H   0  0  0  0  0  0  0  0  0  0  0  0
    1.6832    1.9587    0.6975 H   0  0  0  0  0  0  0  0  0  0  0  0
    0.5419    0.8460   -0.0389 H   0  0  0  0  0  0  0  0  0  0  0  0
    0.6437    2.5205   -0.6328 H   0  0  0  0  0  0  0  0  0  0  0  0
    1.3056    2.7016    4.2414 H   0  0  0  0  0  0  0  0  0  0  0  0
    3.0638    2.5481    4.1299 H   0  0  0  0  0  0  0  0  0  0  0  0
    2.1443    1.4664    5.2177 H   0  0  0  0  0  0  0  0  0  0  0  0
    2.9695   -0.5501    2.1635 H   0  0  0  0  0  0  0  0  0  0  0  0
    3.2449   -0.4975    3.9275 H   0  0  0  0  0  0  0  0  0  0  0  0
    4.0428    0.6855    2.8558 H   0  0  0  0  0  0  0  0  0  0  0  0
  1  2  1  0  0  0  0
  1  3  2  0  0  0  0
  1 14  1  0  0  0  0
  2  4  2  0  0  0  0
  2 15  1  0  0  0  0
  3  5  1  0  0  0  0
  3 16  1  0  0  0  0
  4  6  1  0  0  0  0
  4 17  1  0  0  0  0
  5  6  2  0  0  0  0
  5  7  1  0  0  0  0
  6 13  1  0  0  0  0
  7 18  1  0  0  0  0
  7 19  1  0  0  0  0
  7 20  1  0  0  0  0
  8 10  1  0  0  0  0
  8 21  1  0  0  0  0
  8 22  1  0  0  0  0
  8 23  1  0  0  0  0
  9 10  1  0  0  0  0
  9 24  1  0  0  0  0
  9 25  1  0  0  0  0
  9 26  1  0  0  0  0
 10 13  1  0  0  0  0
 11 13  2  0  0  0  0
 12 13  2  0  0  0  0
M  END
$$$$
