27
0 1 C14FH11O
C                     1.428105604110    -1.757383170641    -0.107859661384
C                     6.789182055094    -1.421778967759     4.948934760445
C                     0.675889009943    -0.728926266851     0.467756728391
C                     7.152744351632    -0.143241698547     4.506610167088
C                     2.515557681063    -2.277156304307     0.590563640395
C                     5.793389413690    -2.128361044395     4.278468673888
C                     1.016534022640    -0.239990405959     1.730980439934
C                     6.520914234074     0.421428517747     3.396330025572
C                     2.883857330744    -1.759565545084     1.843105121466
C                     5.120128694657    -1.573119067336     3.176404220239
C                     2.122547027299    -0.731150372208     2.439401634924
C                     5.518007678215    -0.299681039687     2.756370179694
C                     4.070352066565    -2.401163580728     2.493384330419
C                     2.414878049535    -0.162487180477     3.812044710053
O                     4.207263551523    -3.621635732184     2.464413148160
F                     4.931403299376     0.267943059673     1.673626308804
H                     1.164677283311    -2.153900851116    -1.084641637953
H                     7.285415788314    -1.863488244439     5.808179884977
H                    -0.181921499295    -0.317049223127    -0.057956461799
H                     7.932768133990     0.412907806845     5.019335686912
H                     3.103411129790    -3.089276457236     0.173483826880
H                     5.508538544165    -3.127770537949     4.592982471414
H                     0.406265108820     0.538266025059     2.183949665722
H                     6.794321932174     1.401288532939     3.016970990237
H                     2.799267305848    -0.913947802665     4.505195464733
H                     3.154081890335     0.643850097434     3.761453754722
H                     1.503385597377     0.257380084578     4.246481647205
