32   
torsion grid (-45,)
C       -0.4892447219    3.2010382558   -0.7102279625
C        0.1712640010    2.0603749753   -0.3043760558
C       -2.0238397199   10.1463084661   -2.8947195249
C       -3.0655859607   11.1839873591   -2.9632003618
C       -3.9998905678    4.2092826728   -1.5991849842
C       -1.9158435019    0.8107811675   -0.3685578616
C       -4.5938709981    2.9483743544   -1.3944347496
C       -1.8872106008    3.1998315252   -0.9619890090
C       -2.6137603355    1.9767185839   -0.7881299766
C       -2.6347993082    4.3502367327   -1.3841152631
C       -0.5616281855    0.8619908216   -0.1355617794
C       -2.6643905781    8.9840918667   -2.5055907171
C       -4.3535845219   10.6686648869   -2.9692584951
C       -2.0204207348    7.7630526687   -2.0914598755
C       -5.6560317801   11.3966367558   -3.0556845847
N       -3.9563229588    1.8562645023   -1.0040033785
N       -2.6772099474    6.6536839927   -1.9771513843
N       -1.9945319775    5.5616908928   -1.5685629238
S       -4.1955590168    8.9493266187   -3.4174329781
Cl       0.2977405071   -0.5791824067    0.3823381671
H        0.1029355312    4.1040954737   -0.8325905080
H        1.2395941532    2.0719408459   -0.1151854327
H       -0.9740219479   10.3575168676   -2.7052522596
H       -2.8547443287   12.2468862781   -2.8807032966
H       -4.5931625373    5.0574566225   -1.9170460432
H       -2.4847219635   -0.1040622190   -0.2425335476
H       -5.6652282668    2.8422851411   -1.5643402400
H       -0.9562789449    7.8350097105   -1.8231714391
H       -6.1547914006   11.2228544999   -4.0167214184
H       -6.3440692577   11.0662792284   -2.2692163791
H       -5.4980182172   12.4734973566   -2.9451189646
H       -0.9978031002    5.6391560251   -1.3852220618
32   
torsion grid (-30,)
C       -0.4821309197    3.1802476878   -0.7420655824
C        0.1932183730    2.0364181375   -0.3708220352
C       -2.0966890242   10.1717325658   -2.7430063900
C       -3.0764406619   11.2101760221   -2.9391571566
C       -4.0170983193    4.1865601144   -1.5289835593
C       -1.8896028212    0.7785180782   -0.4051366090
C       -4.6008127322    2.9202223131   -1.3294806999
C       -1.8856333174    3.1766311126   -0.9603279760
C       -2.6027253994    1.9477415231   -0.7885246515
C       -2.6473154912    4.3310181745   -1.3462851549
C       -0.5303420265    0.8321733336   -0.2042273453
C       -2.7165752113    8.9784415022   -2.4163222427
C       -4.3687855145   10.7300271746   -2.9998024324
C       -2.0627543187    7.7538709311   -2.0258182948
C       -5.6382309686   11.4938946639   -3.2190082245
N       -3.9497858018    1.8244062260   -0.9729214719
N       -2.7134580832    6.6442008795   -1.9034854521
N       -2.0163360482    5.5463632761   -1.5274125563
S       -4.3219898249    8.9748321893   -3.1491580982
Cl       0.3473818979   -0.6134928469    0.2691762831
H        0.1028067832    4.0882088786   -0.8630306219
H        1.2656791951    2.0501127900   -0.2068419037
H       -1.0435771256   10.3628966074   -2.5535282717
H       -2.8385158140   12.2692919959   -2.9684271265
H       -4.6221297857    5.0365166960   -1.8184002221
H       -2.4513256114   -0.1408786208   -0.2801392482
H       -5.6757499238    2.8124879511   -1.4742386746
H       -0.9883376831    7.8239280046   -1.8037458617
H       -6.1115481585   11.2313058151   -4.1722680389
H       -6.3660337869   11.2904155015   -2.4257198893
H       -5.4341212206   12.5682079571   -3.2283698400
H       -1.0150731962    5.6244730551   -1.3730268020
32   
torsion grid (-15,)
C       -0.4672400583    3.1653126084   -0.7611577379
C        0.2173220415    2.0228865215   -0.4025521726
C       -2.1214768107   10.1793960967   -2.6263040862
C       -3.0742347372   11.2095742289   -2.9091283443
C       -4.0151308902    4.1609401262   -1.5005672372
C       -1.8610867550    0.7573032906   -0.4159121694
C       -4.5916254462    2.8917686701   -1.2987329201
C       -1.8732877269    3.1573612757   -0.9619938152
C       -2.5835099399    1.9251041847   -0.7860896971
C       -2.6437151426    4.3108605777   -1.3339309287
C       -0.4996621849    0.8154056623   -0.2314999148
C       -2.7352811932    8.9668111701   -2.3819102056
C       -4.3700780560   10.7523907025   -3.0064629442
C       -2.0777302500    7.7384675443   -2.0056691477
C       -5.6102144286   11.5385492401   -3.3088137872
N       -3.9322760471    1.7970200907   -0.9542993414
N       -2.7251513206    6.6293263941   -1.8740586778
N       -2.0194712706    5.5285331999   -1.5176857406
S       -4.4065948999    9.0079085828   -2.8990370412
Cl       0.3892409763   -0.6287649493    0.2257317819
H        0.1127402786    4.0758583139   -0.8864350373
H        1.2916959091    2.0401339897   -0.2519559084
H       -1.0659011807   10.3616031100   -2.4483691815
H       -2.8142539193   12.2584426768   -3.0163645571
H       -4.6272442052    5.0091796226   -1.7797546324
H       -2.4176773474   -0.1647392528   -0.2874768669
H       -5.6678628080    2.7805500186   -1.4308867247
H       -0.9962405100    7.8055713505   -1.8217210959
H       -6.0833610756   11.2087336896   -4.2405907841
H       -6.3528632314   11.4392261072   -2.5094861629
H       -5.3630970878   12.5984033314   -3.4130939951
H       -1.0173760889    5.6102994437   -1.3718286960
32   
torsion grid (0,)
C       -0.4735873853    3.1683753535   -0.7623924554
C        0.2130204606    2.0250735442   -0.4105274167
C       -2.1575681066   10.2030391354   -2.5485330623
C       -3.0869104102   11.2217882754   -2.9094865894
C       -4.0234657929    4.1602732441   -1.4968760007
C       -1.8624281888    0.7547735727   -0.4317938277
C       -4.5973628929    2.8891331985   -1.3004238865
C       -1.8794600021    3.1582162641   -0.9641605582
C       -2.5870161336    1.9234677637   -0.7948641130
C       -2.6521659895    4.3120729539   -1.3305522483
C       -0.5011259221    0.8148536069   -0.2472173619
C       -2.7510666921    8.9695061753   -2.3676255527
C       -4.3818116946   10.7684957266   -3.0032721060
C       -2.0907166366    7.7406768671   -2.0008033983
C       -5.6132708456   11.5485597523   -3.3564135233
N       -3.9356834862    1.7937310246   -0.9625648910
N       -2.7390623645    6.6342623158   -1.8542844057
N       -2.0303208744    5.5316186143   -1.5084764705
S       -4.4756257331    9.0624878780   -2.6447884584
Cl       0.3910911800   -0.6300842673    0.2011434853
H        0.1042728641    4.0812562028   -0.8803313864
H        1.2872155679    2.0438417868   -0.2588862847
H       -1.0910728590   10.3672029663   -2.4256157211
H       -2.8121008101   12.2556788345   -3.0944047692
H       -4.6373161183    5.0082633366   -1.7729201493
H       -2.4171328171   -0.1691392715   -0.3086881672
H       -5.6734981204    2.7765471171   -1.4323079756
H       -1.0033449153    7.8019925541   -1.8536028507
H       -6.0999755866   11.1510884834   -4.2538916457
H       -6.3499463191   11.5296385987   -2.5456447041
H       -5.3496940318   12.5919083511   -3.5490372062
H       -1.0262327069    5.6116142988   -1.3763467948
32   
torsion grid (15,)
C       -0.4705443646    3.1683585822   -0.7584899289
C        0.2153657704    2.0231030472   -0.4116678656
C       -2.1463392007   10.2132921630   -2.4823957823
C       -3.0757898990   11.2087564661   -2.9228335425
C       -4.0183374668    4.1637643109   -1.4993403997
C       -1.8593257739    0.7521661668   -0.4486710503
C       -4.5926831191    2.8917301692   -1.3098242603
C       -1.8755530124    3.1586749612   -0.9663429216
C       -2.5833795587    1.9228747967   -0.8062719315
C       -2.6473195081    4.3140122316   -1.3297429785
C       -0.4986168105    0.8113257812   -0.2594429236
C       -2.7414704037    8.9729052559   -2.3634898626
C       -4.3737421992   10.7545728988   -3.0047323174
C       -2.0812209275    7.7410623205   -2.0038039998
C       -5.5992233786   11.5189903436   -3.4061924650
N       -3.9317324340    1.7942767761   -0.9772591901
N       -2.7334528520    6.6393181819   -1.8382196760
N       -2.0248839147    5.5344912084   -1.5005405228
S       -4.4848858927    9.1219968723   -2.3893535007
Cl       0.3927291061   -0.6362497091    0.1820457126
H        0.1068451620    4.0828692884   -0.8655997785
H        1.2888299758    2.0416415143   -0.2549060762
H       -1.0734598101   10.3695434084   -2.4224275360
H       -2.7922982729   12.2221867447   -3.1908183257
H       -4.6311084083    5.0129733735   -1.7741240941
H       -2.4141065467   -0.1726624765   -0.3330748057
H       -5.6685661903    2.7799284158   -1.4443085399
H       -0.9887216947    7.7917826892   -1.8950256694
H       -6.0968723317   11.0561057724   -4.2655061082
H       -6.3303161063   11.5718523457   -2.5916058337
H       -5.3268604497   12.5413524487   -3.6815353754
H       -1.0180937443    5.6091981462   -1.3867480074
32   
torsion grid (30,)
C       -0.4639062504    3.1642952736   -0.7729515225
C        0.2169735361    2.0118695287   -0.4403339331
C       -2.1358136008   10.2443147944   -2.3733117177
C       -3.0672587058   11.2094774667   -2.9002065647
C       -4.0113392842    4.1879945572   -1.4791667698
C       -1.8654246113    0.7537908793   -0.4715669219
C       -4.5913066463    2.9177721290   -1.2939719333
C       -1.8704513978    3.1648451063   -0.9705327155
C       -2.5843848819    1.9320325245   -0.8143204663
C       -2.6381792302    4.3270853642   -1.3193585065
C       -0.5029935827    0.8030460225   -0.2923116068
C       -2.7146120417    8.9881271149   -2.3297124075
C       -4.3548297185   10.7223586302   -2.9960972122
C       -2.0549934693    7.7536015400   -1.9828112526
C       -5.5882625740   11.4296303977   -3.4667599231
N       -3.9348011924    1.8135783202   -0.9753254440
N       -2.7143869578    6.6566297129   -1.8049103385
N       -2.0095265227    5.5456396978   -1.4860916379
S       -4.4555367931    9.1935659981   -2.1255530183
Cl       0.3828301792   -0.6532312190    0.1309535541
H        0.1183443866    4.0761344667   -0.8764425758
H        1.2916230209    2.0225730895   -0.2912023454
H       -1.0612601869   10.4027636894   -2.3326813098
H       -2.7827860070   12.1970446969   -3.2508218592
H       -4.6205287854    5.0431657934   -1.7435249313
H       -2.4252279379   -0.1683743981   -0.3589340806
H       -5.6688514556    2.8133999161   -1.4204810176
H       -0.9584079892    7.7892359409   -1.9133684985
H       -6.0791497726   10.8759860222   -4.2748726695
H       -6.3212602084   11.5495075684   -2.6605616831
H       -5.3321082248   12.4248290051   -3.8407297242
H       -1.0004151543    5.6115111459   -1.3869395184
32   
torsion grid (45,)
C       -0.4762230026    3.1786650404   -0.8235719364
C        0.1998985369    2.0142660397   -0.5250076003
C       -2.1281686398   10.3002701393   -2.2091334427
C       -3.0841432841   11.2087752024   -2.8628647976
C       -4.0283148881    4.2493060126   -1.4298709080
C       -1.8962779631    0.7784846326   -0.5271028618
C       -4.6185500834    2.9826838800   -1.2512239186
C       -1.8870185260    3.1967877804   -0.9879419425
C       -2.6106212173    1.9692077614   -0.8344175511
C       -2.6506735926    4.3714314332   -1.3003022263
C       -0.5295907917    0.8108178501   -0.3790436018
C       -2.7065042625    9.0445484789   -2.2436685082
C       -4.3531657247   10.6648643831   -2.9982026321
C       -2.0486762564    7.8027971055   -1.9236153420
C       -5.5830013913   11.2833508236   -3.5802158578
N       -3.9656265174    1.8674671498   -0.9655808485
N       -2.7147547375    6.7074121691   -1.7457886287
N       -2.0135189592    5.5875635825   -1.4635382677
S       -4.4281480524    9.2961806522   -1.8566964011
Cl       0.3500360144   -0.6608897276    0.0005363433
H        0.1132160722    4.0859011240   -0.9267677387
H        1.2777950134    2.0114168546   -0.4009877699
H       -1.0558607745   10.4776627089   -2.1729328212
H       -2.7950335502   12.1538803344   -3.3147560537
H       -4.6335714739    5.1155277805   -1.6659399414
H       -2.4630642071   -0.1395579869   -0.4157824438
H       -5.6997919934    2.8914719586   -1.3538311331
H       -0.9494300587    7.8220207904   -1.8945725079
H       -6.0461646244   10.6182220232   -4.3179005515
H       -6.3367559088   11.4887177623   -2.8106652616
H       -5.3365858011   12.2276379706   -4.0746068535
H       -1.0019187233    5.6426828320   -1.3816314353
