32
0 1 C10H18N2O2
C                    -1.185387787057    -0.784760040104     3.409614178054
C                     2.122224800712     0.921123710230    -1.750779166054
C                     1.333422920948    -0.314174219217    -1.297770072055
C                     0.151075256967     0.480928663554     0.886847568768
C                    -1.127476321196    -0.578646860658    -0.417627871768
C                     0.991935839140     1.852484284807    -2.205453062142
C                     0.101857114323     0.323358825265    -0.656017871214
C                    -1.618121355685    -1.095905661726     5.794768989261
C                    -3.503477107507    -1.281143281762     4.206534154823
C                    -1.748717227053    -0.755085882963     1.983675755709
N                    -0.700019982885    -0.730414768259     0.993678821869
N                    -2.098108591815    -0.966496502004     4.423515607572
O                     0.014140736925    -0.617478413554     3.626633445807
O                    -0.154667380666     1.515018780463    -1.399798518084
H                     2.662958257393     1.357968435441    -0.904252598818
H                     2.842938634136     0.713223859184    -2.546442807332
H                     1.031954585233    -0.913583204858    -2.165368354109
H                     1.873598767727    -0.961417453844    -0.603638318078
H                     1.111578652431     0.407841771153     1.402091696943
H                    -0.368222575021     1.401649971558     1.194261448575
H                    -2.055556674414     0.003479250200    -0.537244136239
H                    -1.201681947139    -1.515196012494    -0.983219221542
H                     1.218433152287     2.913570662874    -2.060700938374
H                     0.741808641535     1.690368221599    -3.262770010393
H                    -2.167684515134    -0.413021870993     6.453125088190
H                    -0.557813804762    -0.850166655557     5.819101663388
H                    -1.757369078652    -2.121748816395     6.161339954582
H                    -3.679630691625    -2.364663524413     4.142899404591
H                    -3.883274915418    -0.810638430280     3.299592991810
H                    -4.088119524795    -0.892603339329     5.046057553811
H                    -2.365419729230    -1.644659434047     1.807902787592
H                    -2.425069886193     0.121356945279     1.898752481464
