
  -OEChem-05262117483D

 32 33  0     0  0  0  0  0  0999 V2000
   -0.8171   -1.1044    3.6802 C   0  0  0  0  0  0  0  0  0  0  0  0
    2.1124    1.6497   -1.2582 C   0  0  0  0  0  0  0  0  0  0  0  0
    1.5831    0.2206   -1.0712 C   0  0  0  0  0  0  0  0  0  0  0  0
    0.3963    0.4608    1.2862 C   0  0  0  0  0  0  0  0  0  0  0  0
   -0.7535   -0.6394   -0.1214 C   0  0  0  0  0  0  0  0  0  0  0  0
    0.8107    2.4608   -1.4010 C   0  0  0  0  0  0  0  0  0  0  0  0
    0.3109    0.4675   -0.2680 C   0  0  0  0  0  0  0  0  0  0  0  0
   -0.8936   -1.7871    6.0223 C   0  0  0  0  0  0  0  0  0  0  0  0
   -1.1794   -3.5103    4.2868 C   0  0  0  0  0  0  0  0  0  0  0  0
   -0.8839   -1.5077    2.2026 C   0  0  0  0  0  0  0  0  0  0  0  0
   -0.8374   -0.3618    1.3309 N   0  0  0  0  0  0  0  0  0  0  0  0
   -1.0588   -2.0953    4.6060 N   0  0  0  0  0  0  0  0  0  0  0  0
   -0.5464    0.0488    4.0120 O   0  0  0  0  0  0  0  0  0  0  0  0
   -0.2400    1.6669   -0.8178 O   0  0  0  0  0  0  0  0  0  0  0  0
    2.6669    1.9638   -0.3677 H   0  0  0  0  0  0  0  0  0  0  0  0
    2.7724    1.7599   -2.1228 H   0  0  0  0  0  0  0  0  0  0  0  0
    1.3231   -0.2267   -2.0383 H   0  0  0  0  0  0  0  0  0  0  0  0
    2.2869   -0.4436   -0.5633 H   0  0  0  0  0  0  0  0  0  0  0  0
    1.2885   -0.0654    1.6620 H   0  0  0  0  0  0  0  0  0  0  0  0
    0.3030    1.4235    1.7916 H   0  0  0  0  0  0  0  0  0  0  0  0
   -1.6864   -0.4799   -0.6721 H   0  0  0  0  0  0  0  0  0  0  0  0
   -0.3461   -1.6364   -0.3623 H   0  0  0  0  0  0  0  0  0  0  0  0
    0.8613    3.4281   -0.8885 H   0  0  0  0  0  0  0  0  0  0  0  0
    0.5542    2.6397   -2.4523 H   0  0  0  0  0  0  0  0  0  0  0  0
   -1.7389   -2.1914    6.5905 H   0  0  0  0  0  0  0  0  0  0  0  0
   -0.8530   -0.7063    6.1457 H   0  0  0  0  0  0  0  0  0  0  0  0
    0.0333   -2.2266    6.4158 H   0  0  0  0  0  0  0  0  0  0  0  0
   -0.2267   -4.0400    4.4319 H   0  0  0  0  0  0  0  0  0  0  0  0
   -1.5056   -3.6650    3.2598 H   0  0  0  0  0  0  0  0  0  0  0  0
   -1.9251   -3.9690    4.9450 H   0  0  0  0  0  0  0  0  0  0  0  0
   -0.0546   -2.2236    2.0095 H   0  0  0  0  0  0  0  0  0  0  0  0
   -1.8157   -2.0490    2.0016 H   0  0  0  0  0  0  0  0  0  0  0  0
  1 10  1  0  0  0  0
  1 12  1  0  0  0  0
  1 13  2  0  0  0  0
  2  3  1  0  0  0  0
  2  6  1  0  0  0  0
  2 15  1  0  0  0  0
  2 16  1  0  0  0  0
  3  7  1  0  0  0  0
  3 17  1  0  0  0  0
  3 18  1  0  0  0  0
  4  7  1  0  0  0  0
  4 11  1  0  0  0  0
  4 19  1  0  0  0  0
  4 20  1  0  0  0  0
  5  7  1  0  0  0  0
  5 11  1  0  0  0  0
  5 21  1  0  0  0  0
  5 22  1  0  0  0  0
  6 14  1  0  0  0  0
  6 23  1  0  0  0  0
  6 24  1  0  0  0  0
  7 14  1  0  0  0  0
  8 12  1  0  0  0  0
  8 25  1  0  0  0  0
  8 26  1  0  0  0  0
  8 27  1  0  0  0  0
  9 12  1  0  0  0  0
  9 28  1  0  0  0  0
  9 29  1  0  0  0  0
  9 30  1  0  0  0  0
 10 11  1  0  0  0  0
 10 31  1  0  0  0  0
 10 32  1  0  0  0  0
M  END
$$$$
