41
0 1 C15H20N2O3S
C                     3.738329096915     4.087925046879     5.568570936410
C                     3.923248549154     3.943994370186     4.190395514631
C                     2.487745148182     3.808467112268     6.131159295474
C                     2.862100474316     3.525350203002     3.381391712755
C                     1.432039803834     3.389458876454     5.318569862903
C                     1.607594470476     3.245381183749     3.936181142756
C                     0.284922408992     1.257000275331     3.083216071106
C                    -0.122057988664    -1.333231316464     0.976784262615
C                    -0.540852442177     1.509999767458    -0.099654874568
C                    -0.828081772760    -0.714219924156     2.194059114781
C                    -1.351192252465     1.507526361424     1.211396127280
C                    -0.353385567889    -2.092809691691    -1.459428127095
C                    -0.864819440227    -1.129678343989    -0.355039437176
C                    -0.755621727807     0.277075668768    -0.984221525513
C                     0.469785641443     2.783254302909     3.059540508072
N                     0.892628237116    -1.557441372245    -2.035179949194
N                    -0.711278222750     0.738937881626     2.274548376135
O                     0.965582792881     0.537079884925     3.808987229965
O                     1.873585649424     0.793852553442    -1.708588385641
O                     0.132883134025     0.421095808160    -3.535761044940
S                     0.657117310954     0.131296359117    -2.200536926478
H                     4.560891530201     4.414861194756     6.199552211388
H                     4.891300138934     4.157965931754     3.744572943492
H                     2.336679665118     3.915340038074     7.202413580805
H                     3.014202541450     3.411981626934     2.309816592572
H                     0.465456141052     3.162655100909     5.763225301953
H                     0.905868113341    -0.956126650132     0.932153615420
H                    -0.052443705289    -2.412846384761     1.158613775036
H                    -0.802878919628     2.395300995748    -0.688759774480
H                     0.519553286994     1.608764280201     0.146691283073
H                    -1.893974932020    -0.976006742540     2.175207081399
H                    -0.395558726701    -1.118360164221     3.108240215802
H                    -1.498326546824     2.534607896602     1.545149389990
H                    -2.353487137678     1.095144308014     1.048885477794
H                    -0.159030848942    -3.094682050069    -1.071194705270
H                    -1.086867780643    -2.180526598267    -2.266709039101
H                    -1.926538915325    -1.344453323565    -0.183556048322
H                    -1.616083298452     0.431553117149    -1.640044019209
H                    -0.470097633743     3.248280572145     3.380687372596
H                     0.641302643634     3.114156475227     2.030716667512
H                     1.688037619328    -1.685348473038    -1.408539499000
