26
0 1 BrC9H14NS
C                     5.100907422585    -0.557416895395     3.145197412435
C                     5.180119699953    -0.207962685548     4.531747682710
C                     3.837559312063    -0.396012400907     2.645195281295
C                     4.001087003106     0.205709279648     5.092417975472
C                     3.719363121096     0.656937348368     6.494082472944
C                     2.712098087102    -3.631079878486     0.651959256636
C                     0.578590789041    -3.109327939559     1.916697102932
C                     3.344786339591    -0.620334689883     1.242885716802
C                     2.025954141409    -2.686968096379     1.653857105480
N                     2.033948231027    -1.270868020316     1.244407228286
S                     2.740116893259     0.166555796504     3.881152554962
Br                    6.817376680379    -0.334665183214     5.511213926556
H                     5.943543097960    -0.913271090848     2.562330977367
H                     3.881926042708     1.735781945230     6.602247649499
H                     2.686393065964     0.442881287783     6.782351933085
H                     4.384135546622     0.148602851078     7.197149050741
H                     2.178469480070    -3.631490980386    -0.307020320132
H                     3.750385272513    -3.340563404906     0.462659656456
H                     2.722818783464    -4.659640638596     1.028857438021
H                    -0.019496608267    -3.042727584986     0.998825906343
H                     0.123009671544    -2.457040042707     2.666708578620
H                     0.529205902658    -4.144441501068     2.270546515813
H                     3.226317151393     0.345492619912     0.736960552769
H                     4.129601615213    -1.168762737756     0.695656160059
H                     2.573435380125    -2.733379234384     2.602162495271
H                     1.604754773269    -1.178315825771     0.325459801669
