
  -OEChem-05262117483D

 32 33  0     0  0  0  0  0  0999 V2000
   -1.1854   -0.7848    3.4096 C   0  0  0  0  0  0  0  0  0  0  0  0
    2.1222    0.9211   -1.7508 C   0  0  0  0  0  0  0  0  0  0  0  0
    1.3334   -0.3142   -1.2978 C   0  0  0  0  0  0  0  0  0  0  0  0
    0.1511    0.4809    0.8868 C   0  0  0  0  0  0  0  0  0  0  0  0
   -1.1275   -0.5786   -0.4176 C   0  0  0  0  0  0  0  0  0  0  0  0
    0.9919    1.8525   -2.2055 C   0  0  0  0  0  0  0  0  0  0  0  0
    0.1019    0.3234   -0.6560 C   0  0  0  0  0  0  0  0  0  0  0  0
   -1.6181   -1.0959    5.7948 C   0  0  0  0  0  0  0  0  0  0  0  0
   -3.5035   -1.2811    4.2065 C   0  0  0  0  0  0  0  0  0  0  0  0
   -1.7487   -0.7551    1.9837 C   0  0  0  0  0  0  0  0  0  0  0  0
   -0.7000   -0.7304    0.9937 N   0  0  0  0  0  0  0  0  0  0  0  0
   -2.0981   -0.9665    4.4235 N   0  0  0  0  0  0  0  0  0  0  0  0
    0.0141   -0.6175    3.6266 O   0  0  0  0  0  0  0  0  0  0  0  0
   -0.1547    1.5150   -1.3998 O   0  0  0  0  0  0  0  0  0  0  0  0
    2.6630    1.3580   -0.9043 H   0  0  0  0  0  0  0  0  0  0  0  0
    2.8429    0.7132   -2.5464 H   0  0  0  0  0  0  0  0  0  0  0  0
    1.0320   -0.9136   -2.1654 H   0  0  0  0  0  0  0  0  0  0  0  0
    1.8736   -0.9614   -0.6036 H   0  0  0  0  0  0  0  0  0  0  0  0
    1.1116    0.4078    1.4021 H   0  0  0  0  0  0  0  0  0  0  0  0
   -0.3682    1.4016    1.1943 H   0  0  0  0  0  0  0  0  0  0  0  0
   -2.0556    0.0035   -0.5372 H   0  0  0  0  0  0  0  0  0  0  0  0
   -1.2017   -1.5152   -0.9832 H   0  0  0  0  0  0  0  0  0  0  0  0
    1.2184    2.9136   -2.0607 H   0  0  0  0  0  0  0  0  0  0  0  0
    0.7418    1.6904   -3.2628 H   0  0  0  0  0  0  0  0  0  0  0  0
   -2.1677   -0.4130    6.4531 H   0  0  0  0  0  0  0  0  0  0  0  0
   -0.5578   -0.8502    5.8191 H   0  0  0  0  0  0  0  0  0  0  0  0
   -1.7574   -2.1217    6.1613 H   0  0  0  0  0  0  0  0  0  0  0  0
   -3.6796   -2.3647    4.1429 H   0  0  0  0  0  0  0  0  0  0  0  0
   -3.8833   -0.8106    3.2996 H   0  0  0  0  0  0  0  0  0  0  0  0
   -4.0881   -0.8926    5.0461 H   0  0  0  0  0  0  0  0  0  0  0  0
   -2.3654   -1.6447    1.8079 H   0  0  0  0  0  0  0  0  0  0  0  0
   -2.4251    0.1214    1.8988 H   0  0  0  0  0  0  0  0  0  0  0  0
  1 10  1  0  0  0  0
  1 12  1  0  0  0  0
  1 13  2  0  0  0  0
  2  3  1  0  0  0  0
  2  6  1  0  0  0  0
  2 15  1  0  0  0  0
  2 16  1  0  0  0  0
  3  7  1  0  0  0  0
  3 17  1  0  0  0  0
  3 18  1  0  0  0  0
  4  7  1  0  0  0  0
  4 11  1  0  0  0  0
  4 19  1  0  0  0  0
  4 20  1  0  0  0  0
  5  7  1  0  0  0  0
  5 11  1  0  0  0  0
  5 21  1  0  0  0  0
  5 22  1  0  0  0  0
  6 14  1  0  0  0  0
  6 23  1  0  0  0  0
  6 24  1  0  0  0  0
  7 14  1  0  0  0  0
  8 12  1  0  0  0  0
  8 25  1  0  0  0  0
  8 26  1  0  0  0  0
  8 27  1  0  0  0  0
  9 12  1  0  0  0  0
  9 28  1  0  0  0  0
  9 29  1  0  0  0  0
  9 30  1  0  0  0  0
 10 11  1  0  0  0  0
 10 31  1  0  0  0  0
 10 32  1  0  0  0  0
M  END
$$$$
