
  -OEChem-05262117483D

 41 43  0     1  0  0  0  0  0999 V2000
    2.7197    2.8986   -3.7552 C   0  0  0  0  0  0  0  0  0  0  0  0
    1.9202    2.0816   -4.5612 C   0  0  0  0  0  0  0  0  0  0  0  0
    3.3754    2.3444   -2.6478 C   0  0  0  0  0  0  0  0  0  0  0  0
    1.7692    0.7254   -4.2518 C   0  0  0  0  0  0  0  0  0  0  0  0
    3.2221    0.9898   -2.3419 C   0  0  0  0  0  0  0  0  0  0  0  0
    2.4077    0.1677   -3.1369 C   0  0  0  0  0  0  0  0  0  0  0  0
    1.9963   -1.4788   -1.2533 C   0  0  0  0  0  0  0  0  0  0  0  0
   -0.3441    1.0743   -1.4875 C   0  0  0  0  0  0  0  0  0  0  0  0
   -0.1691   -0.1040    1.4778 C   0  0  0  0  0  0  0  0  0  0  0  0
   -0.2902   -0.4565   -1.3945 C   0  0  0  0  0  0  0  0  0  0  0  0
    0.8172   -1.0590    0.8015 C   0  0  0  0  0  0  0  0  0  0  0  0
   -0.2770    3.3196   -0.3430 C   0  0  0  0  0  0  0  0  0  0  0  0
   -0.7542    1.8487   -0.2260 C   0  0  2  0  0  0  0  0  0  0  0  0
   -0.1642    1.3858    1.1163 C   0  0  2  0  0  0  0  0  0  0  0  0
    2.2006   -1.2869   -2.7598 C   0  0  0  0  0  0  0  0  0  0  0  0
    1.1689    3.3672   -0.0445 N   0  0  0  0  0  0  0  0  0  0  0  0
    0.8642   -0.9670   -0.6621 N   0  0  0  0  0  0  0  0  0  0  0  0
    2.8675   -2.0368   -0.5847 O   0  0  0  0  0  0  0  0  0  0  0  0
    2.6135    1.4177    0.8064 O   0  0  0  0  0  0  0  0  0  0  0  0
    1.5168    2.9544    2.5057 O   0  0  0  0  0  0  0  0  0  0  0  0
    1.4772    2.2507    1.2224 S   0  0  0  0  0  0  0  0  0  0  0  0
    2.8367    3.9535   -3.9895 H   0  0  0  0  0  0  0  0  0  0  0  0
    1.4111    2.4991   -5.4262 H   0  0  0  0  0  0  0  0  0  0  0  0
    4.0084    2.9660   -2.0191 H   0  0  0  0  0  0  0  0  0  0  0  0
    1.1328    0.1003   -4.8750 H   0  0  0  0  0  0  0  0  0  0  0  0
    3.7059    0.5813   -1.4601 H   0  0  0  0  0  0  0  0  0  0  0  0
    0.6357    1.4089   -1.8273 H   0  0  0  0  0  0  0  0  0  0  0  0
   -1.0484    1.3468   -2.2829 H   0  0  0  0  0  0  0  0  0  0  0  0
   -1.2008   -0.4454    1.3300 H   0  0  0  0  0  0  0  0  0  0  0  0
    0.0159   -0.1922    2.5537 H   0  0  0  0  0  0  0  0  0  0  0  0
   -1.2047   -0.8531   -0.9378 H   0  0  0  0  0  0  0  0  0  0  0  0
   -0.2688   -0.8591   -2.4072 H   0  0  0  0  0  0  0  0  0  0  0  0
    1.8271   -0.8753    1.1631 H   0  0  0  0  0  0  0  0  0  0  0  0
    0.5535   -2.0816    1.1029 H   0  0  0  0  0  0  0  0  0  0  0  0
   -0.4341    3.7250   -1.3450 H   0  0  0  0  0  0  0  0  0  0  0  0
   -0.8013    3.9619    0.3713 H   0  0  0  0  0  0  0  0  0  0  0  0
   -1.8458    1.8198   -0.1259 H   0  0  0  0  0  0  0  0  0  0  0  0
   -0.7192    1.9067    1.9026 H   0  0  0  0  0  0  0  0  0  0  0  0
    1.3769   -1.7146   -3.3398 H   0  0  0  0  0  0  0  0  0  0  0  0
    3.0941   -1.8711   -2.9933 H   0  0  0  0  0  0  0  0  0  0  0  0
    1.7275    3.0646   -0.8451 H   0  0  0  0  0  0  0  0  0  0  0  0
  1  2  1  0  0  0  0
  1  3  2  0  0  0  0
  1 22  1  0  0  0  0
  2  4  2  0  0  0  0
  2 23  1  0  0  0  0
  3  5  1  0  0  0  0
  3 24  1  0  0  0  0
  4  6  1  0  0  0  0
  4 25  1  0  0  0  0
  5  6  2  0  0  0  0
  5 26  1  0  0  0  0
  6 15  1  0  0  0  0
  7 15  1  0  0  0  0
  7 17  1  0  0  0  0
  7 18  2  0  0  0  0
  8 10  1  0  0  0  0
  8 13  1  0  0  0  0
  8 27  1  0  0  0  0
  8 28  1  0  0  0  0
  9 11  1  0  0  0  0
  9 14  1  0  0  0  0
  9 29  1  0  0  0  0
  9 30  1  0  0  0  0
 10 17  1  0  0  0  0
 10 31  1  0  0  0  0
 10 32  1  0  0  0  0
 11 17  1  0  0  0  0
 11 33  1  0  0  0  0
 11 34  1  0  0  0  0
 12 13  1  0  0  0  0
 12 16  1  0  0  0  0
 12 35  1  0  0  0  0
 12 36  1  0  0  0  0
 13 14  1  0  0  0  0
 13 37  1  0  0  0  0
 14 21  1  0  0  0  0
 14 38  1  0  0  0  0
 15 39  1  0  0  0  0
 15 40  1  0  0  0  0
 16 21  1  0  0  0  0
 16 41  1  0  0  0  0
 19 21  2  0  0  0  0
 20 21  2  0  0  0  0
M  END
$$$$
