
  -OEChem-05262117483D

 23 24  0     0  0  0  0  0  0999 V2000
   -1.2304    0.5353   -2.4576 C   0  0  0  0  0  0  0  0  0  0  0  0
   -2.0434   -0.4031   -1.7617 C   0  0  0  0  0  0  0  0  0  0  0  0
    0.1143    0.2710   -2.3419 C   0  0  0  0  0  0  0  0  0  0  0  0
   -1.3057   -1.3789   -1.1189 C   0  0  0  0  0  0  0  0  0  0  0  0
   -4.7000   -4.0489    0.8689 C   0  0  0  0  0  0  0  0  0  0  0  0
   -6.4033   -5.1680    1.6608 C   0  0  0  0  0  0  0  0  0  0  0  0
   -1.7682   -2.4957   -0.3166 C   0  0  0  0  0  0  0  0  0  0  0  0
   -5.7866   -3.4266    0.4790 N   0  0  0  0  0  0  0  0  0  0  0  0
   -6.8770   -4.1536    0.9929 N   0  0  0  0  0  0  0  0  0  0  0  0
   -3.0283   -2.6873   -0.1206 N   0  0  0  0  0  0  0  0  0  0  0  0
   -5.0163   -5.1640    1.6246 N   0  0  0  0  0  0  0  0  0  0  0  0
   -4.0787   -6.0436    2.1783 N   0  0  0  0  0  0  0  0  0  0  0  0
   -3.3799   -3.7485    0.6444 N   0  0  0  0  0  0  0  0  0  0  0  0
    0.4061   -1.1351   -1.3762 S   0  0  0  0  0  0  0  0  0  0  0  0
   -7.2799   -6.4303    2.5258 S   0  0  0  0  0  0  0  0  0  0  0  0
   -1.6216    1.3750   -3.0231 H   0  0  0  0  0  0  0  0  0  0  0  0
   -3.1268   -0.3806   -1.7220 H   0  0  0  0  0  0  0  0  0  0  0  0
    0.9462    0.8185   -2.7662 H   0  0  0  0  0  0  0  0  0  0  0  0
   -1.0086   -3.1637    0.1127 H   0  0  0  0  0  0  0  0  0  0  0  0
   -4.2343   -6.9830    1.8127 H   0  0  0  0  0  0  0  0  0  0  0  0
   -4.1822   -6.0591    3.1929 H   0  0  0  0  0  0  0  0  0  0  0  0
   -2.6879   -4.3960    1.0222 H   0  0  0  0  0  0  0  0  0  0  0  0
   -8.4830   -5.9195    2.1988 H   0  0  0  0  0  0  0  0  0  0  0  0
  1  2  1  0  0  0  0
  1  3  2  0  0  0  0
  1 16  1  0  0  0  0
  2  4  2  0  0  0  0
  2 17  1  0  0  0  0
  3 14  1  0  0  0  0
  3 18  1  0  0  0  0
  4  7  1  0  0  0  0
  4 14  1  0  0  0  0
  5  8  2  0  0  0  0
  5 11  1  0  0  0  0
  5 13  1  0  0  0  0
  6  9  2  0  0  0  0
  6 11  1  0  0  0  0
  6 15  1  0  0  0  0
  7 10  2  0  0  0  0
  7 19  1  0  0  0  0
  8  9  1  0  0  0  0
 10 13  1  0  0  0  0
 11 12  1  0  0  0  0
 12 20  1  0  0  0  0
 12 21  1  0  0  0  0
 13 22  1  0  0  0  0
 15 23  1  0  0  0  0
M  END
$$$$
