
  -OEChem-05262117483D

 23 24  0     0  0  0  0  0  0999 V2000
   -0.0333    0.2562   -2.3971 C   0  0  0  0  0  0  0  0  0  0  0  0
   -0.0997   -0.8442   -1.4934 C   0  0  0  0  0  0  0  0  0  0  0  0
   -1.2784    0.6894   -2.7831 C   0  0  0  0  0  0  0  0  0  0  0  0
   -1.3961   -1.2301   -1.2068 C   0  0  0  0  0  0  0  0  0  0  0  0
   -4.6092   -3.9797    0.9780 C   0  0  0  0  0  0  0  0  0  0  0  0
   -6.2542   -5.1136    1.8803 C   0  0  0  0  0  0  0  0  0  0  0  0
   -1.7986   -2.3072   -0.3304 C   0  0  0  0  0  0  0  0  0  0  0  0
   -5.7379   -3.4641    0.5280 N   0  0  0  0  0  0  0  0  0  0  0  0
   -6.7716   -4.1876    1.1149 N   0  0  0  0  0  0  0  0  0  0  0  0
   -3.0409   -2.5876   -0.1308 N   0  0  0  0  0  0  0  0  0  0  0  0
   -4.8591   -5.0229    1.8343 N   0  0  0  0  0  0  0  0  0  0  0  0
   -3.8595   -5.7684    2.4740 N   0  0  0  0  0  0  0  0  0  0  0  0
   -3.3161   -3.6165    0.7083 N   0  0  0  0  0  0  0  0  0  0  0  0
   -2.5519   -0.2329   -2.0546 S   0  0  0  0  0  0  0  0  0  0  0  0
   -7.0951   -6.2853    2.8934 S   0  0  0  0  0  0  0  0  0  0  0  0
    0.8913    0.7053   -2.7445 H   0  0  0  0  0  0  0  0  0  0  0  0
    0.7693   -1.3368   -1.0674 H   0  0  0  0  0  0  0  0  0  0  0  0
   -1.5208    1.5018   -3.4569 H   0  0  0  0  0  0  0  0  0  0  0  0
   -0.9860   -2.8684    0.1521 H   0  0  0  0  0  0  0  0  0  0  0  0
   -3.9683   -6.7498    2.2185 H   0  0  0  0  0  0  0  0  0  0  0  0
   -3.9921   -5.6956    3.4827 H   0  0  0  0  0  0  0  0  0  0  0  0
   -2.5801   -4.1515    1.1697 H   0  0  0  0  0  0  0  0  0  0  0  0
   -7.3229   -7.2097    1.9315 H   0  0  0  0  0  0  0  0  0  0  0  0
  1  2  1  0  0  0  0
  1  3  2  0  0  0  0
  1 16  1  0  0  0  0
  2  4  2  0  0  0  0
  2 17  1  0  0  0  0
  3 14  1  0  0  0  0
  3 18  1  0  0  0  0
  4  7  1  0  0  0  0
  4 14  1  0  0  0  0
  5  8  2  0  0  0  0
  5 11  1  0  0  0  0
  5 13  1  0  0  0  0
  6  9  2  0  0  0  0
  6 11  1  0  0  0  0
  6 15  1  0  0  0  0
  7 10  2  0  0  0  0
  7 19  1  0  0  0  0
  8  9  1  0  0  0  0
 10 13  1  0  0  0  0
 11 12  1  0  0  0  0
 12 20  1  0  0  0  0
 12 21  1  0  0  0  0
 13 22  1  0  0  0  0
 15 23  1  0  0  0  0
M  END
$$$$
