
  -OEChem-05262117483D

 23 24  0     0  0  0  0  0  0999 V2000
   -1.9802    2.6244   -0.9598 C   0  0  0  0  0  0  0  0  0  0  0  0
   -2.5001    1.3602   -0.5657 C   0  0  0  0  0  0  0  0  0  0  0  0
   -0.6802    2.5518   -1.4038 C   0  0  0  0  0  0  0  0  0  0  0  0
   -1.5866    0.3328   -0.7113 C   0  0  0  0  0  0  0  0  0  0  0  0
   -4.0912   -3.4673    0.5706 C   0  0  0  0  0  0  0  0  0  0  0  0
   -6.0969   -3.8101    1.3502 C   0  0  0  0  0  0  0  0  0  0  0  0
   -1.7330   -1.0821   -0.4233 C   0  0  0  0  0  0  0  0  0  0  0  0
   -4.5162   -4.5922    0.0580 N   0  0  0  0  0  0  0  0  0  0  0  0
   -5.8002   -4.8203    0.5712 N   0  0  0  0  0  0  0  0  0  0  0  0
   -2.8043   -1.5506    0.1177 N   0  0  0  0  0  0  0  0  0  0  0  0
   -5.0397   -2.9150    1.4030 N   0  0  0  0  0  0  0  0  0  0  0  0
   -4.9798   -1.7593    2.1964 N   0  0  0  0  0  0  0  0  0  0  0  0
   -2.8301   -2.9068    0.3888 N   0  0  0  0  0  0  0  0  0  0  0  0
   -0.0738    0.9347   -1.3454 S   0  0  0  0  0  0  0  0  0  0  0  0
   -7.6120   -3.5815    2.2113 S   0  0  0  0  0  0  0  0  0  0  0  0
   -2.5431    3.5513   -0.9239 H   0  0  0  0  0  0  0  0  0  0  0  0
   -3.5083    1.1968   -0.2014 H   0  0  0  0  0  0  0  0  0  0  0  0
   -0.0484    3.3537   -1.7637 H   0  0  0  0  0  0  0  0  0  0  0  0
   -0.8954   -1.7408   -0.6856 H   0  0  0  0  0  0  0  0  0  0  0  0
   -4.6405   -1.0034    1.6010 H   0  0  0  0  0  0  0  0  0  0  0  0
   -4.2783   -1.9098    2.9232 H   0  0  0  0  0  0  0  0  0  0  0  0
   -2.2333   -3.5059   -0.1843 H   0  0  0  0  0  0  0  0  0  0  0  0
   -7.2227   -2.3987    2.7377 H   0  0  0  0  0  0  0  0  0  0  0  0
  1  2  1  0  0  0  0
  1  3  2  0  0  0  0
  1 16  1  0  0  0  0
  2  4  2  0  0  0  0
  2 17  1  0  0  0  0
  3 14  1  0  0  0  0
  3 18  1  0  0  0  0
  4  7  1  0  0  0  0
  4 14  1  0  0  0  0
  5  8  2  0  0  0  0
  5 11  1  0  0  0  0
  5 13  1  0  0  0  0
  6  9  2  0  0  0  0
  6 11  1  0  0  0  0
  6 15  1  0  0  0  0
  7 10  2  0  0  0  0
  7 19  1  0  0  0  0
  8  9  1  0  0  0  0
 10 13  1  0  0  0  0
 11 12  1  0  0  0  0
 12 20  1  0  0  0  0
 12 21  1  0  0  0  0
 13 22  1  0  0  0  0
 15 23  1  0  0  0  0
M  END
$$$$
