32
0 1 C10H18N2O2
C                    -2.519689332679    -2.109119478376     2.226384761962
C                     1.669519830148     1.330018596949    -1.658895613374
C                     0.566751417347     0.290936121692    -1.418460015919
C                     0.235075820785     0.306771236419     1.169502448120
C                    -1.577488711110     0.352290980704     0.095716907103
C                     0.929785044684     2.634994284578    -1.343012966699
C                    -0.163977115956     0.885938013687    -0.215315841020
C                    -4.571167273198    -3.228418842186     1.520437481015
C                    -4.471521309974    -0.784834553547     1.329076756766
C                    -1.661681895433    -0.841542987937     2.352112224158
N                    -0.971290778739    -0.548315057955     1.104115264054
N                    -3.795335653870    -2.009748840764     1.723586140934
O                    -2.034641183292    -3.192416291826     2.559291309384
O                    -0.063286324081     2.301396462382    -0.351527028732
H                     2.496639802160     1.177717024715    -0.956976942657
H                     2.075104427659     1.310241540636    -2.674020458269
H                    -0.111384680121     0.248785976797    -2.279108031571
H                     0.934305101789    -0.718605120449    -1.223334333402
H                     1.181102128997    -0.239815883315     1.262591201898
H                     0.176372938655     1.092274061407     1.939076091840
H                    -2.191180988725     1.156094129498     0.533059773281
H                    -2.132967521430    -0.146494212188    -0.706389292087
H                     1.577908581476     3.416074018893    -0.934013525146
H                     0.422425387069     3.032132039034    -2.232461727213
H                    -5.481722187383    -3.208579808638     2.132661027282
H                    -3.962809752755    -4.085056599474     1.804202034395
H                    -4.863926082290    -3.319289570853     0.466736945697
H                    -4.627333337989    -0.752220367200     0.242636175593
H                    -3.905916159259     0.096396174846     1.618663682950
H                    -5.454552747691    -0.731065359889     1.813558369031
H                    -2.218598046309     0.029037091280     2.741209760618
H                    -0.905167514465    -1.103177419159     3.094289935047
