
  -OEChem-05262117483D

 26 26  0     0  0  0  0  0  0999 V2000
    4.4797    0.9272    1.8723 C   0  0  0  0  0  0  0  0  0  0  0  0
    5.3747    0.9258    2.9913 C   0  0  0  0  0  0  0  0  0  0  0  0
    4.0573   -0.3304    1.5386 C   0  0  0  0  0  0  0  0  0  0  0  0
    5.6377   -0.3082    3.5237 C   0  0  0  0  0  0  0  0  0  0  0  0
    6.4871   -0.6894    4.6980 C   0  0  0  0  0  0  0  0  0  0  0  0
   -0.0597   -1.4865    2.4397 C   0  0  0  0  0  0  0  0  0  0  0  0
    0.5535    0.7144    1.3651 C   0  0  0  0  0  0  0  0  0  0  0  0
    3.0839   -0.7388    0.4572 C   0  0  0  0  0  0  0  0  0  0  0  0
    1.0849   -0.6009    1.9420 C   0  0  0  0  0  0  0  0  0  0  0  0
    1.8304   -1.3497    0.9135 N   0  0  0  0  0  0  0  0  0  0  0  0
    4.7590   -1.5177    2.6144 S   0  0  0  0  0  0  0  0  0  0  0  0
    6.1248    2.5463    3.6734 Br  0  0  0  0  0  0  0  0  0  0  0  0
    4.1706    1.8259    1.3496 H   0  0  0  0  0  0  0  0  0  0  0  0
    5.8760   -0.8598    5.5920 H   0  0  0  0  0  0  0  0  0  0  0  0
    7.0555   -1.6033    4.5012 H   0  0  0  0  0  0  0  0  0  0  0  0
    7.1948    0.1115    4.9235 H   0  0  0  0  0  0  0  0  0  0  0  0
   -0.7358   -1.7387    1.6158 H   0  0  0  0  0  0  0  0  0  0  0  0
    0.3209   -2.4220    2.8676 H   0  0  0  0  0  0  0  0  0  0  0  0
   -0.6340   -0.9752    3.2186 H   0  0  0  0  0  0  0  0  0  0  0  0
   -0.0579    0.5206    0.4772 H   0  0  0  0  0  0  0  0  0  0  0  0
    1.3635    1.3942    1.0838 H   0  0  0  0  0  0  0  0  0  0  0  0
   -0.0614    1.2322    2.1083 H   0  0  0  0  0  0  0  0  0  0  0  0
    2.8546    0.1522   -0.1348 H   0  0  0  0  0  0  0  0  0  0  0  0
    3.5585   -1.4497   -0.2280 H   0  0  0  0  0  0  0  0  0  0  0  0
    1.7310   -0.3573    2.8025 H   0  0  0  0  0  0  0  0  0  0  0  0
    2.0304   -2.2818    1.2721 H   0  0  0  0  0  0  0  0  0  0  0  0
  1  2  1  0  0  0  0
  1  3  2  0  0  0  0
  1 13  1  0  0  0  0
  2  4  2  0  0  0  0
  2 12  1  0  0  0  0
  3  8  1  0  0  0  0
  3 11  1  0  0  0  0
  4  5  1  0  0  0  0
  4 11  1  0  0  0  0
  5 14  1  0  0  0  0
  5 15  1  0  0  0  0
  5 16  1  0  0  0  0
  6  9  1  0  0  0  0
  6 17  1  0  0  0  0
  6 18  1  0  0  0  0
  6 19  1  0  0  0  0
  7  9  1  0  0  0  0
  7 20  1  0  0  0  0
  7 21  1  0  0  0  0
  7 22  1  0  0  0  0
  8 10  1  0  0  0  0
  8 23  1  0  0  0  0
  8 24  1  0  0  0  0
  9 10  1  0  0  0  0
  9 25  1  0  0  0  0
 10 26  1  0  0  0  0
M  END
$$$$
