19   
torsion grid (-165,)
C        2.1034239755   -0.9355856643   -0.0555942874
C        2.5438169348   -1.7474881911    2.1834130639
C        0.8799092501   -0.4094731553    0.3705224535
C        1.3305521536   -1.2175896022    2.6217987685
C        2.9573015788   -1.5946231489    0.8479873597
C        0.5198818035   -0.5517902510    1.7054311881
C        4.9661879274   -1.4758039185   -0.2755388390
C        7.0578009475   -1.0869905973   -1.2843199996
N        4.1933350092   -2.1551988800    0.4673395483
O        6.1094119305   -2.0190363159   -0.7475908746
F       -0.6702852533   -0.0432811010    2.1262057159
H        2.3787775241   -0.8664879016   -1.1045164128
H        3.1929193842   -2.2816978916    2.8706684540
H        0.2075898285    0.0917897335   -0.3192212715
H        1.0064939175   -1.3205593226    3.6529465104
H        4.7843563903   -0.4346638552   -0.5830037745
H        7.8422699093   -1.6855820963   -1.7472412454
H        7.4894433511   -0.4698159660   -0.4887636153
H        6.5972730535   -0.4432969877   -2.0432277105
19   
torsion grid (-150,)
C        2.0547924384   -0.9787079331   -0.0703348622
C        2.5823979499   -1.6963216707    2.1819414264
C        0.8384488973   -0.4527997984    0.3760192589
C        1.3771471519   -1.1655971127    2.6406916856
C        2.9482524482   -1.5900585535    0.8282701915
C        0.5263948699   -0.5474661712    1.7271491545
C        4.9107694502   -1.4913223280   -0.3759177363
C        7.0832503370   -1.1117377501   -1.1938234894
N        4.1810605046   -2.1463633722    0.4299236443
O        6.0360527014   -2.0411858615   -0.8849604475
F       -0.6561406301   -0.0392109561    2.1685713325
H        2.2939007103   -0.9474941579   -1.1298236821
H        3.2617670472   -2.1949222158    2.8667208759
H        0.1358730986    0.0118410693   -0.3091976273
H        1.0892944468   -1.2323681140    3.6854603636
H        4.7064169367   -0.4623727582   -0.7113848794
H        7.8236159369   -1.6642029224   -1.7726096926
H        7.5417663961   -0.7325144157   -0.2742307613
H        6.7072447019   -0.2716550287   -1.7913547119
19   
torsion grid (-135,)
C        2.0116080463   -1.0113653535   -0.0964476041
C        2.6388526482   -1.6509871163    2.1548670824
C        0.8022235915   -0.4976935430    0.3816185057
C        1.4411491462   -1.1304873188    2.6440417405
C        2.9499641850   -1.5773666780    0.7856293775
C        0.5434322721   -0.5576860321    1.7460223049
C        4.8618079917   -1.4790978815   -0.4989329933
C        7.1017292364   -1.1287347687   -1.1055084390
N        4.1797041631   -2.1203535931    0.3578220486
O        5.9797583393   -2.0198672083   -1.0398755124
F       -0.6321005763   -0.0608775546    2.2173344879
H        2.2103967436   -1.0068057975   -1.1646320422
H        3.3537067502   -2.1159034684    2.8271516305
H        0.0643331569   -0.0680860427   -0.2891345758
H        1.1943635258   -1.1716427667    3.7005499453
H        4.6283014545   -0.4607789772   -0.8492045814
H        7.8550530055   -1.6246571372   -1.7180351720
H        7.5004424003   -0.9467039892   -0.1017317672
H        6.8251605056   -0.1729487840   -1.5700798470
19   
torsion grid (-120,)
C        1.9616040165   -1.0365536260   -0.1243456119
C        2.6915699618   -1.6031689240    2.1158041632
C        0.7589757139   -0.5408130960    0.3879412770
C        1.5013485496   -1.0986973702    2.6390358140
C        2.9466683763   -1.5568743629    0.7341835940
C        0.5554256518   -0.5716777821    1.7627962163
C        4.8061430291   -1.4479874285   -0.6266149202
C        7.0992908443   -1.1649231192   -1.0138888810
N        4.1728080570   -2.0815373770    0.2716362806
O        5.9251371231   -1.9704090756   -1.1922992363
F       -0.6128966883   -0.0917465234    2.2673647487
H        2.1195523153   -1.0539505637   -1.1991267590
H        3.4431213265   -2.0338212202    2.7706814705
H       -0.0151200668   -0.1468000962   -0.2635539489
H        1.2968233964   -1.1183156366    3.7051312046
H        4.5343753065   -0.4445180685   -0.9920470293
H        7.8796526559   -1.6151225518   -1.6281571794
H        7.4036212841   -1.1697295651    0.0384005931
H        6.9273179635   -0.1307236784   -1.3421952338
19   
torsion grid (-105,)
C        1.9143626412   -1.0549377142   -0.1524774897
C        2.7445496865   -1.5443070019    2.0712690212
C        0.7159505316   -0.5861232675    0.3933346396
C        1.5587658215   -1.0647936081    2.6273724433
C        2.9461111472   -1.5228303743    0.6806052871
C        0.5644874131   -0.5898243904    1.7754053200
C        4.7559947394   -1.3871395163   -0.7462890395
C        7.0869984706   -1.2158020644   -0.9236945671
N        4.1702745439   -2.0213277241    0.1825543317
O        5.8819692637   -1.8812856646   -1.3327676549
F       -0.5992127321   -0.1349115338    2.3120367138
H        2.0340141526   -1.0919957395   -1.2316462522
H        3.5331797629   -1.9353676038    2.7071378321
H       -0.0941547121   -0.2328188136   -0.2373450509
H        1.3945129131   -1.0648686273    3.7005673779
H        4.4330890786   -0.4073705627   -1.1321740716
H        7.8923161557   -1.6395161430   -1.5247459484
H        7.2773138570   -1.3997332932    0.1393702262
H        7.0261104009   -0.1340745297   -1.1056206576
19   
torsion grid (-90,)
C        1.8512776671   -1.0820508063   -0.2132622380
C        2.7486788133   -1.4924234782    2.0000818403
C        0.6497771994   -0.6437966258    0.3504263495
C        1.5595682972   -1.0422761263    2.5738037239
C        2.9173935811   -1.4951833436    0.6052263846
C        0.5298713446   -0.6218527645    1.7355645209
C        4.6978043383   -1.3274064679   -0.8588354361
C        7.0517544856   -1.3436077230   -0.8521766901
N        4.1441722566   -1.9663656618    0.0859637084
O        5.8301475610   -1.7939617967   -1.4612008215
F       -0.6366718405   -0.1959739088    2.2892419092
H        1.9482178426   -1.1373118994   -1.2939045088
H        3.5647555430   -1.8415084990    2.6256909161
H       -0.1863861787   -0.3329281878   -0.2684538233
H        1.4200573967   -1.0240255012    3.6503315965
H        4.3237439982   -0.3795999638   -1.2740603789
H        7.8632435266   -1.7731978519   -1.4407823150
H        7.1130517736   -1.6970010018    0.1826917724
H        7.1237047399   -0.2482397096   -0.8752588093
19   
torsion grid (-75,)
C        1.8405999080   -1.0954659129   -0.2162543504
C        2.8018255941   -1.4078253657    1.9859489239
C        0.6277699327   -0.7119820304    0.3627316903
C        1.6005366962   -1.0120561664    2.5746028311
C        2.9434917077   -1.4321749746    0.5884657737
C        0.5331033531   -0.6673024692    1.7493326775
C        4.6925997413   -1.1941260094   -0.9061769022
C        7.0480760684   -1.4098275331   -0.7958031697
N        4.1804382901   -1.8520145472    0.0497062453
O        5.8295931722   -1.6080356147   -1.5350698367
F       -0.6445738434   -0.2945161089    2.3178051533
H        1.9201259246   -1.1669535642   -1.2973886638
H        3.6479033337   -1.6972200259    2.6021300756
H       -0.2358316236   -0.4603253885   -0.2452900345
H        1.4811374014   -0.9780822195    3.6531761067
H        4.2510232548   -0.2914411152   -1.3511151668
H        7.8462989701   -1.8317512190   -1.4075695017
H        7.0018353023   -1.9278980899    0.1671678267
H        7.2332110235   -0.3404280592   -0.6370168661
19   
torsion grid (-60,)
C        1.8402660848   -1.1139222254   -0.2241311750
C        2.8352972584   -1.3211694661    1.9750288569
C        0.6126074213   -0.7836872040    0.3564816906
C        1.6182579197   -0.9793435523    2.5653792474
C        2.9669335450   -1.3711760487    0.5772098848
C        0.5268631543   -0.7129765417    1.7425461487
C        4.6927480814   -1.0692333880   -0.9349314773
C        7.0253727671   -1.4887098947   -0.7709322077
N        4.2180555138   -1.7386388891    0.0335878207
O        5.8352371013   -1.4259960510   -1.5808191614
F       -0.6651239346   -0.3923532119    2.3134770144
H        1.9149847940   -1.2048765228   -1.3041933036
H        3.7011208001   -1.5479782602    2.5900352220
H       -0.2681248641   -0.5931961867   -0.2492493223
H        1.5058024154   -0.9266979176    3.6439737419
H        4.1949096559   -0.2148607865   -1.4116692664
H        7.8220554067   -1.8288676464   -1.4332776269
H        6.8971057807   -2.1930730731    0.0554346805
H        7.2672859829   -0.4937337802   -0.3811800697
19   
torsion grid (-45,)
C        1.8460868807   -1.1418739521   -0.2400487757
C        2.8571395769   -1.2253472009    1.9600272398
C        0.6042197158   -0.8602180127    0.3362636331
C        1.6248318918   -0.9330831812    2.5453950123
C        2.9873928735   -1.3125417438    0.5637738614
C        0.5182150758   -0.7519679071    1.7197771392
C        4.6919282726   -0.9568414343   -0.9608780262
C        6.9790385351   -1.5670963008   -0.7767640597
N        4.2537643734   -1.6297383055    0.0242122678
O        5.8426514066   -1.2556393963   -1.6087304475
F       -0.6880615189   -0.4787096761    2.2860144745
H        1.9225401648   -1.2614083106   -1.3172894696
H        3.7360992258   -1.3841858188    2.5777488168
H       -0.2871373049   -0.7357334024   -0.2710947598
H        1.5129499263   -0.8528713354    3.6223753493
H        4.1498033074   -0.1472729300   -1.4642254034
H        7.8224663255   -1.6782331535   -1.4586408132
H        6.8158249650   -2.4931057840   -0.2197728532
H        7.1647123578   -0.7457325472   -0.0779570286
19   
torsion grid (-30,)
C        1.8646038987   -1.1609042759   -0.2458785225
C        2.8713821622   -1.1391005509    1.9561477858
C        0.6084527150   -0.9262334234    0.3207150990
C        1.6244066835   -0.8949134128    2.5324582821
C        3.0115402892   -1.2546952436    0.5627397572
C        0.5125807539   -0.7887304247    1.7008979479
C        4.6962313789   -0.8580210405   -0.9742908283
C        6.9269399391   -1.6339728543   -0.7919674640
N        4.2943519088   -1.5199918337    0.0349957922
O        5.8617632688   -1.1025549601   -1.6064638813
F       -0.7076034004   -0.5613219803    2.2580831810
H        1.9491478361   -1.3033872369   -1.3197716570
H        3.7553939492   -1.2377505999    2.5791605883
H       -0.2859142283   -0.8606132547   -0.2914442228
H        1.5057369077   -0.7939818035    3.6069873918
H        4.1221079892   -0.0884483168   -1.5020371359
H        7.8152394720   -1.6140237257   -1.4235622448
H        6.7040191097   -2.6561765070   -0.4760844744
H        7.0688088728   -1.0061247339    0.0919129389
19   
torsion grid (-15,)
C        1.8948989325   -1.1774644783   -0.2458984911
C        2.8775374311   -1.0623128563    1.9641813923
C        0.6241522580   -0.9879052057    0.3050391103
C        1.6155767254   -0.8638144499    2.5250293005
C        3.0369727684   -1.2011429181    0.5747672062
C        0.5087419908   -0.8260241461    1.6810096893
C        4.7117368998   -0.7655467976   -0.9623087377
C        6.8815195714   -1.6928658941   -0.8173983895
N        4.3368703371   -1.4145009090    0.0667032107
O        5.8969935363   -0.9549659694   -1.5687942165
F       -0.7260961663   -0.6427345870    2.2222902964
H        1.9957323921   -1.3391449387   -1.3157242045
H        3.7592591234   -1.1060534386    2.5966298737
H       -0.2663257001   -0.9758969983   -0.3161476206
H        1.4821338800   -0.7456137505    3.5960858596
H        4.1187077100   -0.0212001993   -1.5036887192
H        7.7883257454   -1.6649782051   -1.4215301321
H        6.5536116293   -2.7233056417   -0.6590562589
H        7.0460703526   -1.2171171358    0.1529211208
19   
torsion grid (0,)
C        1.9306326398   -1.1932776302   -0.2363731790
C        2.8743006546   -0.9916286107    1.9838677571
C        0.6446290106   -1.0422689628    0.2908618690
C        1.5965887091   -0.8317028178    2.5207451142
C        3.0607559263   -1.1538380705    0.6001884541
C        0.5014874405   -0.8556555358    1.6609783822
C        4.7329785460   -0.6941380430   -0.9317586113
C        6.8473643500   -1.7441621545   -0.8562566676
N        4.3765082862   -1.3208580635    0.1178245291
O        5.9412780963   -0.8290772270   -1.5033530651
F       -0.7477496779   -0.7100256124    2.1805614910
H        2.0539647630   -1.3741658908   -1.3007705988
H        3.7470659692   -0.9858095789    2.6300538238
H       -0.2356964430   -1.0789390554   -0.3437075125
H        1.4422073072   -0.6958687896    3.5868679684
H        4.1264628225    0.0273895697   -1.4883215637
H        7.7561613538   -1.7255514515   -1.4576853576
H        6.4186934656   -2.7492315289   -0.8291554081
H        7.0509496314   -1.4162612608    0.1662870859
19   
torsion grid (15,)
C        1.9694267888   -1.2101752427   -0.2197453154
C        2.8617506300   -0.9228216896    2.0126548123
C        0.6688337250   -1.0920378424    0.2794927661
C        1.5689125414   -0.7951738838    2.5208459951
C        3.0808354737   -1.1107653420    0.6368368468
C        0.4921991488   -0.8779939660    1.6416196033
C        4.7605298278   -0.6388955774   -0.8829415354
C        6.8245832260   -1.7897165436   -0.9096967096
N        4.4116511672   -1.2363739989    0.1861075521
O        5.9927046615   -0.7254896572   -1.4132049097
F       -0.7712875997   -0.7646374870    2.1340923384
H        2.1196542788   -1.4125305378   -1.2768072684
H        3.7209759801   -0.8704463146    2.6746672023
H       -0.1970235898   -1.1750901744   -0.3704238087
H        1.3889687011   -0.6395875964    3.5802265339
H        4.1453142229    0.0612158399   -1.4574745587
H        7.7243667872   -1.7707162021   -1.5247113911
H        6.3079458134   -2.7483611492   -1.0045517250
H        7.0713689075   -1.6198096298    0.1413006487
19   
torsion grid (30,)
C        2.0145658797   -1.2240168427   -0.1885539306
C        2.8548118583   -0.8472006615    2.0515281156
C        0.7016570931   -1.1308833045    0.2829449057
C        1.5493135418   -0.7432880808    2.5314985040
C        3.1054486558   -1.0668670661    0.6856882823
C        0.4929730111   -0.8833073603    1.6348119430
C        4.7961460598   -0.5948261144   -0.8213603341
C        6.8111573224   -1.8254023400   -0.9955153445
N        4.4483357331   -1.1595188809    0.2653571441
O        6.0493074408   -0.6425835785   -1.3130686622
F       -0.7824210010   -0.7943054560    2.1004645346
H        2.1912355273   -1.4524045019   -1.2361555316
H        3.6993216038   -0.7504371405    2.7272910623
H       -0.1487763731   -1.2586963976   -0.3799529206
H        1.3442051354   -0.5630996886    3.5823646944
H        4.1711967656    0.0814039593   -1.4148807063
H        7.7127477739   -1.7649921772   -1.6054901869
H        6.2347583572   -2.7199646296   -1.2466350412
H        7.0678627209   -1.8490622601    0.0664649884
19   
torsion grid (45,)
C        2.0628441493   -1.2490209676   -0.1464824108
C        2.8499991151   -0.7638233211    2.0924110299
C        0.7392507374   -1.1721730871    0.2971449832
C        1.5333862216   -0.6742993330    2.5436401364
C        3.1321115039   -1.0294308956    0.7408941746
C        0.4983181625   -0.8768745219    1.6340194581
C        4.8389174218   -0.5775695161   -0.7541291960
C        6.8032504838   -1.8624226619   -1.1013439652
N        4.4851518390   -1.1000201499    0.3504853580
O        6.1126218113   -0.6006553127   -1.2083208604
F       -0.7873837863   -0.8033767210    2.0724965058
H        2.2653969404   -1.5141392852   -1.1805862720
H        3.6788245386   -0.6193716084    2.7789385998
H       -0.0948429011   -1.3486134941   -0.3752636316
H        1.3034736193   -0.4585513604    3.5825807407
H        4.2041900070    0.0601672291   -1.3808364369
H        7.7683308738   -1.7130486089   -1.5862423042
H        6.2369981864   -2.6418077077   -1.6203934616
H        6.9428896466   -2.1453750871   -0.0550941144
19   
torsion grid (60,)
C        2.1012576172   -1.2921469209   -0.0980538358
C        2.8151477203   -0.6781768370    2.1347389485
C        0.7648054556   -1.2323923415    0.3078464863
C        1.4850204530   -0.6034788856    2.5470771486
C        3.1392256991   -1.0001185902    0.8052198957
C        0.4807946924   -0.8793391872    1.6221207990
C        4.8749936347   -0.5678161429   -0.6616117016
C        6.7819966842   -1.8783005545   -1.1950937427
N        4.5041521268   -1.0522803509    0.4530959711
O        6.1710274160   -0.5794019616   -1.0685945715
F       -0.8173580188   -0.8213693875    2.0236267736
H        2.3390415776   -1.6003652822   -1.1124503322
H        3.6214200901   -0.4784986278    2.8341271995
H       -0.0461423648   -1.4648870903   -0.3757093660
H        1.2213765015   -0.3444240932    3.5679272186
H        4.2341740076    0.0176261633   -1.3334650368
H        7.8238668091   -1.6962444393   -1.4607788162
H        6.2909230824   -2.4472910300   -1.9922840342
H        6.7250445864   -2.4292074910   -0.2523919023
19   
torsion grid (75,)
C        2.1426243620   -1.3398502447   -0.0520304399
C        2.7764203414   -0.6141821703    2.1714526713
C        0.7938121376   -1.2909891526    0.3118725821
C        1.4332762163   -0.5479282116    2.5408968512
C        3.1462636900   -0.9873450388    0.8678816624
C        0.4632823186   -0.8855605093    1.6000390876
C        4.9217190853   -0.5763591982   -0.5565733534
C        6.7565063135   -1.8794781869   -1.2930174270
N        4.5231190599   -1.0314198355    0.5592115373
O        6.2379733957   -0.5930627577   -0.9099734511
F       -0.8470958574   -0.8367934427    1.9597543842
H        2.4169682376   -1.6866227974   -1.0444758814
H        3.5576105665   -0.3687380252    2.8845542211
H        0.0084701966   -1.5704723705   -0.3838317519
H        1.1338827332   -0.2495920986    3.5409259279
H        4.2833471700   -0.0487514875   -1.2787435510
H        7.8219778595   -1.7352805473   -1.4761903947
H        6.2712446462   -2.2316665893   -2.2115048353
H        6.6112813839   -2.6088627273   -0.4899726328
19   
torsion grid (90,)
C        1.8809598196   -0.8352554007   -0.0240766384
C        2.9005389537   -1.5944306650    2.0386422885
C        0.7324035842   -0.4587612465    0.6722586946
C        1.7490338660   -1.2357623834    2.7448612960
C        2.9844933897   -1.3834528960    0.6509933399
C        0.6894991360   -0.6640309372    2.0490948458
C        5.2708966159   -1.4581794976    0.3233013822
C        6.8804579557   -0.9544424266   -1.3185216797
N        4.1161385482   -1.7471000277   -0.1129324327
O        6.3981053685   -1.8736316017   -0.3243916264
F       -0.4329030600   -0.3126798365    2.7313041229
H        1.9405077226   -0.7031132628   -1.1002625802
H        3.7232671922   -2.0734438261    2.5619886414
H       -0.1228435542   -0.0235367391    0.1644355772
H        1.6646861404   -1.4033303919    3.8142813921
H        5.4646629856   -0.8786488792    1.2383478173
H        7.7849313558   -1.4004980727   -1.7338020171
H        7.1246356892    0.0181258407   -0.8712949782
H        6.1326208234   -0.8219050052   -2.1076923285
19   
torsion grid (105,)
C        1.8184445836   -0.8504230111   -0.0876951438
C        2.9064683237   -1.5308188193    1.9682546923
C        0.6905579026   -0.4553977358    0.6313984936
C        1.7754376474   -1.1522903379    2.6972100448
C        2.9459731887   -1.3686395659    0.5719748962
C        0.6912871928   -0.6109932364    2.0155297878
C        5.2208813670   -1.4485523219    0.1864874636
C        6.9733841946   -0.8602984055   -1.2547278943
N        4.0558812012   -1.7476888525   -0.2151452900
O        6.3268601704   -1.8823402847   -0.4802972810
F       -0.4117329848   -0.2409487634    2.7194716664
H        1.8437338987   -0.7563010632   -1.1692201074
H        3.7473181749   -1.9884043231    2.4819490152
H       -0.1828001177   -0.0428510947    0.1356409418
H        1.7254947777   -1.2822482219    3.7739952672
H        5.4352010915   -0.8170766705    1.0630872967
H        7.8816946064   -1.3083032470   -1.6592000202
H        7.2392900526    0.0039844900   -0.6308311725
H        6.3200903654   -0.5364669874   -2.0723452731
19   
torsion grid (120,)
C        1.7408697495   -0.8952966819   -0.1023003770
C        2.9219946201   -1.4924836151    1.9275969505
C        0.6373522419   -0.4929784467    0.6495495737
C        1.8162869843   -1.1051616931    2.6904229290
C        2.9027813135   -1.3761212486    0.5260803614
C        0.6970746013   -0.6022552479    2.0369239897
C        5.1603982287   -1.4410531239    0.0567984437
C        7.0541431229   -0.8503428605   -1.1895634316
N        3.9845686131   -1.7629872486   -0.2941099456
O        6.2421949942   -1.8925830639   -0.6294287592
F       -0.3822558542   -0.2245689683    2.7733329830
H        1.7207344402   -0.8362610402   -1.1863963288
H        3.7892543088   -1.9224899007    2.4209121875
H       -0.2618137033   -0.1094507802    0.1771277504
H        1.8125024401   -1.2000273528    3.7720435249
H        5.3991514702   -0.7688474764    0.8967303377
H        7.9500997651   -1.3328150054   -1.5812924800
H        7.3401543511   -0.1136684862   -0.4263880240
H        6.5161043878   -0.3478656979   -2.0007256532
19   
torsion grid (135,)
C        1.6691218446   -0.9326849130   -0.1089967614
C        2.9406100973   -1.4476420299    1.8881731632
C        0.5872242831   -0.5321120903    0.6744230749
C        1.8575152275   -1.0603202636    2.6830980821
C        2.8652137809   -1.3719646102    0.4854916316
C        0.7030331106   -0.5995819451    2.0609555764
C        5.1029547494   -1.4028823485   -0.0681397477
C        7.1267781012   -0.8562116519   -1.1232306657
N        3.9218253215   -1.7596605967   -0.3650331592
O        6.1634498743   -1.8604782254   -0.7758256165
F       -0.3548829143   -0.2225115328    2.8287158754
H        1.6058212026   -0.9046210269   -1.1926623591
H        3.8348199179   -1.8465791177    2.3591180069
H       -0.3376820206   -0.1808508169    0.2272386326
H        1.8980919165   -1.1239277546    3.7662718485
H        5.3596566148   -0.7028258042    0.7431642362
H        7.9953989801   -1.3841878624   -1.5173921722
H        7.4246716573   -0.2685694162   -0.2447208536
H        6.7187699586   -0.1886190159   -1.8897320711
19   
torsion grid (150,)
C        1.6036766803   -0.9737676454   -0.1055194751
C        2.9571534740   -1.3984247742    1.8577174277
C        0.5400831533   -0.5785946341    0.7052574771
C        1.8938467724   -1.0150828726    2.6809614330
C        2.8316002967   -1.3656941030    0.4567569455
C        0.7064675550   -0.6021678698    2.0880794965
C        5.0471887844   -1.3515279608   -0.1774320768
C        7.1794383054   -0.8821587500   -1.0525745224
N        3.8672295391   -1.7521797858   -0.4184891913
O        6.0886535227   -1.8021631151   -0.9122905031
F       -0.3331767423   -0.2290018127    2.8827289554
H        1.5015357238   -0.9779818959   -1.1865497094
H        3.8773034636   -1.7613593420    2.3074593802
H       -0.4089313104   -0.2638444798    0.2819921471
H        1.9747639824   -1.0460724127    3.7633277554
H        5.3151063254   -0.6295684878    0.6099882853
H        8.0058434027   -1.4485947340   -1.4821745200
H        7.4843723347   -0.4741759358   -0.0806026880
H        6.9046593593   -0.0626328845   -1.7253091034
19   
torsion grid (165,)
C        1.5677684979   -1.0252798423   -0.1018623087
C        2.9863069439   -1.3453191403    1.8350510147
C        0.5130180866   -0.6410186594    0.7257082944
C        1.9324639819   -0.9716711540    2.6748508752
C        2.8226496064   -1.3597896730    0.4376450853
C        0.7162089226   -0.6165816216    2.1035166759
C        5.0160598134   -1.2837125876   -0.2661865383
C        7.2299171837   -0.9036653190   -0.9743335194
N        3.8473382786   -1.7422908533   -0.4516708712
O        6.0447705207   -1.7090923926   -1.0317693568
F       -0.3140186857   -0.2535481311    2.9153288067
H        1.4375126105   -1.0650944809   -1.1791242941
H        3.9298522742   -1.6631468579    2.2704128107
H       -0.4567363544   -0.3704537473    0.3192091007
H        2.0432018106   -0.9666260786    3.7550026078
H        5.2816668463   -0.5340946758    0.4947576594
H        7.9996179147   -1.4571881673   -1.5121751340
H        7.5536998517   -0.7456511186    0.0612775731
H        7.0660569733    0.0635086730   -1.4619616903
19   
torsion grid (180,)
C        2.1296128212   -0.8793204076   -0.0316429457
C        2.4922786372   -1.7933304887    2.1814925153
C        0.9052000282   -0.3465887519    0.3834216973
C        1.2775981457   -1.2574816319    2.6091969081
C        2.9450132551   -1.5936158466    0.8653353044
C        0.5053148044   -0.5375060593    1.7008484806
C        4.9952411685   -1.4642030147   -0.1804422341
C        7.0048632440   -1.1149987337   -1.3556887480
N        4.1774438080   -2.1659708737    0.4894469983
O        6.1592738756   -2.0000503587   -0.6084420801
F       -0.6860904882   -0.0227261053    2.1106919446
H        2.4362387024   -0.7705212782   -1.0685018210
H        3.1116338882   -2.3688272870    2.8628225589
H        0.2624188599    0.1973694922   -0.3021204547
H        0.9235758681   -1.3967281999    3.6261342099
H        4.8412841354   -0.4082558020   -0.4488818866
H        7.8966023465   -1.6901175463   -1.6044576397
H        7.2908071056   -0.2420325904   -0.7580901937
H        6.5143559555   -0.7878855181   -2.2795467137
