16
0 1 C7H5N3O
C                     0.606841126103     0.904895676132     1.865491344226
C                     0.232917836119     0.949327696660     3.211492749263
C                    -0.182010184104     0.112175969387     1.030206474776
C                    -4.220815525883    -2.086389994235     4.463755809036
C                    -4.377554434242    -2.514547889234     3.176972948154
C                    -1.504444369848    -0.453878992540     2.792499573832
C                    -2.664377044996    -1.199069960178     3.307046685660
N                    -0.817824746761     0.276587116492     3.687327833451
N                    -1.239134490683    -0.571633886756     1.479963997070
N                    -3.122452116478    -1.247196949997     4.529920650764
O                    -3.386311430949    -1.953469225127     2.423490964274
H                     1.463270562199     1.456331609605     1.490551404277
H                     0.792998239169     1.543099595606     3.932828064278
H                     0.036808915886     0.019763885093    -0.032766314211
H                    -4.815687690085    -2.321630431466     5.336134535134
H                    -5.073491963116    -3.160446600987     2.662317857717
