29
0 1 C11H15NO2
C                     0.853551437042     3.696684718431     5.048904765334
C                     1.906435711221     2.882884390816     5.473718382072
C                    -0.278235492920     3.117907722513     4.459077136354
C                     1.826477209317     1.495644316880     5.303386959088
C                    -0.358212113851     1.734710043873     4.299745598337
C                     0.697353929888     0.913237911436     4.720554396653
C                    -0.442719608270    -1.241582427417     5.431415532509
C                    -1.327364588026    -3.279420576619     6.435558103455
C                     0.583391743993    -3.466796173129     4.884311316680
C                     1.270795052070    -0.568692714527     2.227741249532
C                     0.627841349080    -0.583756315341     4.524695004642
N                    -0.389141262373    -2.605372616525     5.545031292543
O                    -1.280091213966    -0.558241358781     6.019148963845
O                     0.286489778972    -0.953842975295     3.183263949713
H                     0.912115918164     4.774943404994     5.174865451802
H                     2.788960209101     3.324157117465     5.929907487142
H                    -1.100949440224     3.748412452246     4.131224749887
H                     2.651926769963     0.864273705061     5.627615905148
H                    -1.237272194368     1.281267368526     3.853081968815
H                    -1.959659153838    -3.974143469166     5.869054166414
H                    -1.954971686230    -2.532867194626     6.918901571958
H                    -0.782440370634    -3.848457176956     7.199319629824
H                     1.398412364839    -3.749156374860     5.565294482793
H                     0.990624463927    -2.988523317701     3.996833339101
H                     0.081642523708    -4.384367310365     4.559079500429
H                     0.930309713305    -0.946061244492     1.261216452422
H                     2.249251721050    -1.012839979410     2.467169372954
H                     1.381150593644     0.520855417481     2.177425424016
H                     1.613360253069    -1.006453350238     4.777340789429
