29
0 1 C11H15NO2
C                     0.289171289235     3.809334624220     4.984358607900
C                     0.133050925535     2.922998335889     6.056243069205
C                     0.462026903390     3.303594026615     3.692803066005
C                     0.146734696771     1.543827171936     5.835862758858
C                     0.476806473627     1.922338407170     3.470035965350
C                     0.315918260301     1.034623220614     4.539734866565
C                    -0.768706951992    -1.173863386930     5.147091744653
C                    -3.108200426968    -1.652822177734     5.575612745179
C                    -2.540426776836    -0.126915602620     3.721107649023
C                     0.544686309901    -2.134975531982     2.647842077533
C                     0.341745553125    -0.470542634735     4.326424115039
N                    -2.067841142352    -1.064030206765     4.737629823386
O                    -0.434862871889    -1.810625197961     6.151621996115
O                     0.307304774050    -0.759922414499     2.935654868324
H                     0.277445262007     4.882696601215     5.155606200681
H                     0.001268892866     3.305618420493     7.065201073391
H                     0.587028255077     3.984600370689     2.854487614544
H                     0.027280122397     0.859694951620     6.672423368728
H                     0.609441354747     1.527900816474     2.468404678943
H                    -3.606731958764    -0.881227860252     6.177837789681
H                    -2.658552915324    -2.384862118000     6.244225208635
H                    -3.857746628885    -2.138356598643     4.941750116164
H                    -3.380291357539    -0.581728862818     3.185408673197
H                    -1.757660650003     0.094376257807     3.002101311705
H                    -2.885988920050     0.808631372247     4.180072129810
H                     0.540375092583    -2.231481505807     1.560339046107
H                    -0.237866368012    -2.777363957292     3.072181980123
H                     1.519203238673    -2.456767331232     3.039679376083
H                     1.267429093419    -0.874544404999     4.758159893578
