31
0 1 C13H13N3O2
C                     0.876688038378    -1.933061426621     0.830465213376
C                     0.925601025692    -0.567068796670     0.561049204812
C                     7.334013327800    -6.469498894734     5.474148153344
C                     6.387591851214    -7.032357319387     6.336333375874
C                     1.840917375875    -2.534384657904     1.649083329070
C                     1.948487794287     0.218617578724     1.111730124116
C                     6.974891521282    -5.363221047465     4.708168956411
C                     5.124070562158    -6.438829926772     6.395090884967
C                     2.869225522659    -1.762383096224     2.199283660215
C                     2.913365236281    -0.374063199147     1.923504031104
C                     5.676430973510    -4.842473222295     4.853500497474
C                     4.068286164027    -3.557537777265     3.467385549540
C                     4.045717936057     1.707590256878     2.322652590167
N                     4.771390847875    -5.358071126601     5.689227753781
N                     3.898350782559    -2.260750942926     3.018714459810
N                     5.308002321008    -3.686910138003     4.137875179191
O                     3.281985239262    -4.473476138217     3.298607663843
O                     3.963339411517     0.298578504260     2.515134069414
H                     0.083311294626    -2.544892662070     0.410457885696
H                     0.175049260072    -0.101094300082    -0.071218653427
H                     8.330714280719    -6.894267467908     5.386522265248
H                     6.618096501666    -7.900875142096     6.945743440373
H                     1.800458936438    -3.591155484690     1.875415173795
H                     1.981619584739     1.281582795186     0.900932969632
H                     7.673548904600    -4.919553074257     4.002973128271
H                     4.356826176600    -6.841634724644     7.054927595273
H                     4.921058805676     2.037004250585     2.884228961316
H                     3.152714062498     2.212525938904     2.709511855195
H                     4.178321267632     1.955560390586     1.262808810151
H                     4.510439235175    -1.548166001722     3.396795680350
H                     6.077154210491    -3.169705032547     3.730320719513
