
  -OEChem-05262117483D

 20 21  0     0  0  0  0  0  0999 V2000
    0.6170    0.9576    1.9071 C   0  0  0  0  0  0  0  0  0  0  0  0
   -4.3443   -2.4759    3.5165 C   0  0  0  0  0  0  0  0  0  0  0  0
    0.4115    0.7317    3.2714 C   0  0  0  0  0  0  0  0  0  0  0  0
   -0.3271    0.3965    1.0487 C   0  0  0  0  0  0  0  0  0  0  0  0
   -3.9198   -1.9425    4.7645 C   0  0  0  0  0  0  0  0  0  0  0  0
   -3.4631   -1.9800    2.5792 C   0  0  0  0  0  0  0  0  0  0  0  0
   -1.4645   -0.4548    2.8221 C   0  0  0  0  0  0  0  0  0  0  0  0
   -3.4407   -2.2455    1.1063 C   0  0  0  0  0  0  0  0  0  0  0  0
   -0.6181    0.0244    3.7415 N   0  0  0  0  0  0  0  0  0  0  0  0
   -1.3748   -0.3061    1.4939 N   0  0  0  0  0  0  0  0  0  0  0  0
   -2.8520   -1.1741    4.6387 N   0  0  0  0  0  0  0  0  0  0  0  0
   -2.5675   -1.1917    3.2954 N   0  0  0  0  0  0  0  0  0  0  0  0
    1.4606    1.5318    1.5389 H   0  0  0  0  0  0  0  0  0  0  0  0
   -5.1772   -3.1380    3.3204 H   0  0  0  0  0  0  0  0  0  0  0  0
    1.1000    1.1266    4.0175 H   0  0  0  0  0  0  0  0  0  0  0  0
   -0.2523    0.5136   -0.0315 H   0  0  0  0  0  0  0  0  0  0  0  0
   -4.3547   -2.0882    5.7463 H   0  0  0  0  0  0  0  0  0  0  0  0
   -3.6230   -1.3378    0.5268 H   0  0  0  0  0  0  0  0  0  0  0  0
   -2.4762   -2.6418    0.7786 H   0  0  0  0  0  0  0  0  0  0  0  0
   -4.2189   -2.9786    0.8775 H   0  0  0  0  0  0  0  0  0  0  0  0
  1  3  1  0  0  0  0
  1  4  2  0  0  0  0
  1 13  1  0  0  0  0
  2  5  1  0  0  0  0
  2  6  2  0  0  0  0
  2 14  1  0  0  0  0
  3  9  2  0  0  0  0
  3 15  1  0  0  0  0
  4 10  1  0  0  0  0
  4 16  1  0  0  0  0
  5 11  2  0  0  0  0
  5 17  1  0  0  0  0
  6  8  1  0  0  0  0
  6 12  1  0  0  0  0
  7  9  1  0  0  0  0
  7 10  2  0  0  0  0
  7 12  1  0  0  0  0
  8 18  1  0  0  0  0
  8 19  1  0  0  0  0
  8 20  1  0  0  0  0
 11 12  1  0  0  0  0
M  END
$$$$
