33
1 1 C12H19N2
C                    -2.796842891040     3.093726430111     3.101474780416
C                    -2.208473986668     3.077176121800     1.837102838994
C                    -2.730102812517     1.963003760188     3.917303687701
C                    -1.544044732563     1.936740732265     1.364347772551
C                    -2.066376485669     0.809042601149     3.484936643083
C                    -1.472163332306     0.809390561624     2.206216151555
C                    -1.556731512767    -1.364710618781     1.022387743902
C                     0.605676835696    -0.364664228703     1.468486222747
C                    -1.018962062311    -2.770742574526     1.273082457606
C                     1.235712767338    -1.725384131634     1.753982789012
C                    -0.930026005527     1.961320415731    -0.018813070064
C                    -1.994344089987    -0.408532966550     4.377344684271
N                    -0.801978148888    -0.406672109597     1.805956727816
N                     0.472402840800    -2.784851904783     0.973017267015
H                    -3.311366226936     3.985214226837     3.448874898960
H                    -2.272420623364     3.956022906858     1.200670128562
H                    -3.191390857519     1.977539480275     4.901183772202
H                    -1.535802924509    -1.154261604692    -0.064283214569
H                    -2.604552444766    -1.343318249032     1.328867424845
H                     1.108543133197     0.380267272765     2.089194040773
H                     0.803130903232    -0.096175783121     0.414275094922
H                    -1.123402984909    -3.050219681227     2.322383403011
H                    -1.486294988550    -3.523269414708     0.633943370873
H                     2.280438002071    -1.780706338695     1.439551267960
H                     1.144462602736    -1.993231166811     2.807518517380
H                     0.151974244379     2.133214588978     0.019533386083
H                    -1.100395508104     1.030559626479    -0.567963180241
H                    -1.359402622101     2.770572015419    -0.613410697129
H                    -2.554379592350    -1.253592135964     3.958905282207
H                    -0.961055634218    -0.741839413190     4.517063290286
H                    -2.417947383192    -0.194102222041     5.360877348058
H                     0.608739163047    -2.614865055540    -0.031578517752
H                     0.861477114630    -3.714214004582     1.166177924045
