
  -OEChem-05262117483D

 32 34  0     0  0  0  0  0  0999 V2000
    1.9221   -1.0548   -0.1427 C   0  0  0  0  0  0  0  0  0  0  0  0
    6.1553   -3.4914    3.0027 C   0  0  0  0  0  0  0  0  0  0  0  0
    1.3051   -2.1172    0.5259 C   0  0  0  0  0  0  0  0  0  0  0  0
    2.4730   -0.0014    0.5942 C   0  0  0  0  0  0  0  0  0  0  0  0
    6.1839   -2.1373    3.3520 C   0  0  0  0  0  0  0  0  0  0  0  0
    5.0163   -4.2534    3.2829 C   0  0  0  0  0  0  0  0  0  0  0  0
    0.5468   -0.5015    6.2112 C   0  0  0  0  0  0  0  0  0  0  0  0
    1.5655   -1.0879    6.9681 C   0  0  0  0  0  0  0  0  0  0  0  0
    1.2416   -2.1256    1.9223 C   0  0  0  0  0  0  0  0  0  0  0  0
    2.4081   -0.0124    1.9906 C   0  0  0  0  0  0  0  0  0  0  0  0
    5.0794   -1.5500    3.9759 C   0  0  0  0  0  0  0  0  0  0  0  0
    3.9133   -3.6634    3.9070 C   0  0  0  0  0  0  0  0  0  0  0  0
    0.6317   -0.5032    4.8163 C   0  0  0  0  0  0  0  0  0  0  0  0
    2.6597   -1.6706    6.3230 C   0  0  0  0  0  0  0  0  0  0  0  0
    1.7921   -1.0739    2.6684 C   0  0  0  0  0  0  0  0  0  0  0  0
    3.9336   -2.3066    4.2596 C   0  0  0  0  0  0  0  0  0  0  0  0
    1.7260   -1.0857    4.1605 C   0  0  0  0  0  0  0  0  0  0  0  0
    2.7532   -1.6769    4.9236 C   0  0  0  0  0  0  0  0  0  0  0  0
    1.9741   -1.0484   -1.2285 H   0  0  0  0  0  0  0  0  0  0  0  0
    7.0127   -3.9486    2.5154 H   0  0  0  0  0  0  0  0  0  0  0  0
    0.8757   -2.9407   -0.0394 H   0  0  0  0  0  0  0  0  0  0  0  0
    2.9557    0.8276    0.0824 H   0  0  0  0  0  0  0  0  0  0  0  0
    7.0647   -1.5376    3.1364 H   0  0  0  0  0  0  0  0  0  0  0  0
    4.9853   -5.3062    3.0134 H   0  0  0  0  0  0  0  0  0  0  0  0
   -0.3087   -0.0455    6.7031 H   0  0  0  0  0  0  0  0  0  0  0  0
    1.5093   -1.0919    8.0537 H   0  0  0  0  0  0  0  0  0  0  0  0
    0.7657   -2.9537    2.4414 H   0  0  0  0  0  0  0  0  0  0  0  0
    2.8403    0.8046    2.5629 H   0  0  0  0  0  0  0  0  0  0  0  0
    5.1007   -0.4965    4.2433 H   0  0  0  0  0  0  0  0  0  0  0  0
    3.0268   -4.2552    4.1206 H   0  0  0  0  0  0  0  0  0  0  0  0
   -0.1565   -0.0492    4.2209 H   0  0  0  0  0  0  0  0  0  0  0  0
    3.4559   -2.1286    6.9045 H   0  0  0  0  0  0  0  0  0  0  0  0
  1  3  1  0  0  0  0
  1  4  2  0  0  0  0
  1 19  1  0  0  0  0
  2  5  1  0  0  0  0
  2  6  2  0  0  0  0
  2 20  1  0  0  0  0
  3  9  2  0  0  0  0
  3 21  1  0  0  0  0
  4 10  1  0  0  0  0
  4 22  1  0  0  0  0
  5 11  2  0  0  0  0
  5 23  1  0  0  0  0
  6 12  1  0  0  0  0
  6 24  1  0  0  0  0
  7  8  1  0  0  0  0
  7 13  2  0  0  0  0
  7 25  1  0  0  0  0
  8 14  2  0  0  0  0
  8 26  1  0  0  0  0
  9 15  1  0  0  0  0
  9 27  1  0  0  0  0
 10 15  2  0  0  0  0
 10 28  1  0  0  0  0
 11 16  1  0  0  0  0
 11 29  1  0  0  0  0
 12 16  2  0  0  0  0
 12 30  1  0  0  0  0
 13 17  1  0  0  0  0
 13 31  1  0  0  0  0
 14 18  1  0  0  0  0
 14 32  1  0  0  0  0
 15 17  1  0  0  0  0
 16 18  1  0  0  0  0
 17 18  2  0  0  0  0
M  END
$$$$
