19
0 1 C8FH9O
C                     1.137464001287    -0.572186749939    -0.922075012101
C                     0.120566449778     0.008884255646    -0.158586938056
C                     2.233760121709    -1.166204943833    -0.291745609363
C                     0.165496129723     0.001620832754     1.241990306628
C                     1.266454703546    -0.597960685825     1.880063678084
C                     2.281291384991    -1.160115590543     1.096804649138
C                    -0.923973403594     0.627242405146     2.077785615124
C                     1.353942000130    -1.830277717710     3.917404982802
O                     1.338800636726    -0.556674390976     3.252498246809
F                     3.358030232271    -1.713427711233     1.718775226867
H                     1.080904763120    -0.560181153099    -2.006772732256
H                    -0.727570678882     0.472669911246    -0.655879851214
H                     3.048569997731    -1.616871656076    -0.850255970087
H                    -1.365115264719    -0.101845123167     2.765245508120
H                    -0.528628559738     1.441004298620     2.693904895222
H                    -1.718381915905     1.026999946635     1.442463039103
H                     1.287702200450    -1.611535512461     4.984753506394
H                     2.276955867855    -2.378964035813     3.710989934217
H                     0.489821311951    -2.433028557980     3.612347105772
