
  -OEChem-05262117483D

 23 24  0     0  0  0  0  0  0999 V2000
    2.1085    0.2045   -0.1124 C   0  0  0  0  0  0  0  0  0  0  0  0
    0.8102    0.7301   -0.1438 C   0  0  0  0  0  0  0  0  0  0  0  0
    3.1902    1.0429   -0.3637 C   0  0  0  0  0  0  0  0  0  0  0  0
    0.6157    2.0835   -0.3983 C   0  0  0  0  0  0  0  0  0  0  0  0
    3.0236    2.4170   -0.6237 C   0  0  0  0  0  0  0  0  0  0  0  0
    1.7083    2.9390   -0.6284 C   0  0  0  0  0  0  0  0  0  0  0  0
    4.2008    3.2574   -0.9770 C   0  0  0  0  0  0  0  0  0  0  0  0
    2.1013    5.4068   -0.4487 C   0  0  0  0  0  0  0  0  0  0  0  0
    3.4077    5.1037    0.2704 C   0  0  0  0  0  0  0  0  0  0  0  0
    5.2674    2.6267   -1.8455 C   0  0  0  0  0  0  0  0  0  0  0  0
    4.3779    4.4784   -0.6204 N   0  0  0  0  0  0  0  0  0  0  0  0
    1.4356    4.2865   -0.9296 N   0  0  0  0  0  0  0  0  0  0  0  0
    1.6433    6.5284   -0.6087 O   0  0  0  0  0  0  0  0  0  0  0  0
    2.2708   -0.8488    0.0972 H   0  0  0  0  0  0  0  0  0  0  0  0
   -0.0472    0.0876    0.0372 H   0  0  0  0  0  0  0  0  0  0  0  0
    4.1932    0.6279   -0.3588 H   0  0  0  0  0  0  0  0  0  0  0  0
   -0.3901    2.4971   -0.4124 H   0  0  0  0  0  0  0  0  0  0  0  0
    3.8069    6.0540    0.6244 H   0  0  0  0  0  0  0  0  0  0  0  0
    3.1802    4.4672    1.1394 H   0  0  0  0  0  0  0  0  0  0  0  0
    4.8298    2.1559   -2.7318 H   0  0  0  0  0  0  0  0  0  0  0  0
    5.8126    1.8482   -1.2997 H   0  0  0  0  0  0  0  0  0  0  0  0
    5.9801    3.3952   -2.1475 H   0  0  0  0  0  0  0  0  0  0  0  0
    0.5035    4.4995   -1.2711 H   0  0  0  0  0  0  0  0  0  0  0  0
  1  2  1  0  0  0  0
  1  3  2  0  0  0  0
  1 14  1  0  0  0  0
  2  4  2  0  0  0  0
  2 15  1  0  0  0  0
  3  5  1  0  0  0  0
  3 16  1  0  0  0  0
  4  6  1  0  0  0  0
  4 17  1  0  0  0  0
  5  6  2  0  0  0  0
  5  7  1  0  0  0  0
  6 12  1  0  0  0  0
  7 10  1  0  0  0  0
  7 11  2  0  0  0  0
  8  9  1  0  0  0  0
  8 12  1  0  0  0  0
  8 13  2  0  0  0  0
  9 11  1  0  0  0  0
  9 18  1  0  0  0  0
  9 19  1  0  0  0  0
 10 20  1  0  0  0  0
 10 21  1  0  0  0  0
 10 22  1  0  0  0  0
 12 23  1  0  0  0  0
M  END
$$$$
