
  -OEChem-05262117483D

 27 28  0     0  0  0  0  0  0999 V2000
    2.0903   -1.0249   -0.1864 C   0  0  0  0  0  0  0  0  0  0  0  0
    1.8601   -6.1214    5.1562 C   0  0  0  0  0  0  0  0  0  0  0  0
    0.9653   -1.6110    0.4028 C   0  0  0  0  0  0  0  0  0  0  0  0
    3.0848   -0.4711    0.6273 C   0  0  0  0  0  0  0  0  0  0  0  0
    0.7562   -5.5834    5.8307 C   0  0  0  0  0  0  0  0  0  0  0  0
    2.6041   -5.2912    4.3140 C   0  0  0  0  0  0  0  0  0  0  0  0
    0.8309   -1.6392    1.7944 C   0  0  0  0  0  0  0  0  0  0  0  0
    2.9502   -0.5055    2.0182 C   0  0  0  0  0  0  0  0  0  0  0  0
    0.4062   -4.2449    5.6648 C   0  0  0  0  0  0  0  0  0  0  0  0
    2.2650   -3.9459    4.1402 C   0  0  0  0  0  0  0  0  0  0  0  0
    1.8208   -1.0841    2.6131 C   0  0  0  0  0  0  0  0  0  0  0  0
    1.1565   -3.4035    4.8179 C   0  0  0  0  0  0  0  0  0  0  0  0
    1.6806   -1.0727    4.1286 C   0  0  0  0  0  0  0  0  0  0  0  0
    0.7576   -2.0715    4.6485 N   0  0  0  0  0  0  0  0  0  0  0  0
    2.1955   -1.0060   -1.2682 H   0  0  0  0  0  0  0  0  0  0  0  0
    2.1313   -7.1653    5.2852 H   0  0  0  0  0  0  0  0  0  0  0  0
    0.1929   -2.0528   -0.2220 H   0  0  0  0  0  0  0  0  0  0  0  0
    3.9670   -0.0198    0.1798 H   0  0  0  0  0  0  0  0  0  0  0  0
    0.1629   -6.2103    6.4921 H   0  0  0  0  0  0  0  0  0  0  0  0
    3.4621   -5.6906    3.7784 H   0  0  0  0  0  0  0  0  0  0  0  0
   -0.0324   -2.1072    2.2576 H   0  0  0  0  0  0  0  0  0  0  0  0
    3.7335   -0.0839    2.6463 H   0  0  0  0  0  0  0  0  0  0  0  0
   -0.4563   -3.8398    6.1916 H   0  0  0  0  0  0  0  0  0  0  0  0
    2.8501   -3.3314    3.4652 H   0  0  0  0  0  0  0  0  0  0  0  0
    2.6787   -1.1720    4.5828 H   0  0  0  0  0  0  0  0  0  0  0  0
    1.2950   -0.0930    4.4325 H   0  0  0  0  0  0  0  0  0  0  0  0
    0.1731   -1.7340    5.4018 H   0  0  0  0  0  0  0  0  0  0  0  0
  1  3  1  0  0  0  0
  1  4  2  0  0  0  0
  1 15  1  0  0  0  0
  2  5  1  0  0  0  0
  2  6  2  0  0  0  0
  2 16  1  0  0  0  0
  3  7  2  0  0  0  0
  3 17  1  0  0  0  0
  4  8  1  0  0  0  0
  4 18  1  0  0  0  0
  5  9  2  0  0  0  0
  5 19  1  0  0  0  0
  6 10  1  0  0  0  0
  6 20  1  0  0  0  0
  7 11  1  0  0  0  0
  7 21  1  0  0  0  0
  8 11  2  0  0  0  0
  8 22  1  0  0  0  0
  9 12  1  0  0  0  0
  9 23  1  0  0  0  0
 10 12  2  0  0  0  0
 10 24  1  0  0  0  0
 11 13  1  0  0  0  0
 12 14  1  0  0  0  0
 13 14  1  0  0  0  0
 13 25  1  0  0  0  0
 13 26  1  0  0  0  0
 14 27  1  0  0  0  0
M  END
$$$$
