22
0 1 C10H10N2
C                     1.816984817929    -0.972962941683    -0.118310191614
C                     2.930764588259    -1.310146844374     0.656047489262
C                     0.617327867930    -0.622355887531     0.513697195018
C                     2.851435611441    -1.286090522462     2.051157587220
C                     0.536199069457    -0.594764661852     1.905308706640
C                     0.645155201897    -1.039323055093     6.131606974102
C                     1.948509326508    -0.634122682571     6.318867194106
C                     1.657008297560    -0.915270100095     2.694392870695
C                     1.510492653695    -0.888171548982     4.156535872677
C                     3.837530551282    -0.023672731936     4.782552661069
N                     0.381409734612    -1.188999294517     4.792961486843
N                     2.500057720722    -0.534072872467     5.054413764686
H                     1.879405244048    -0.992031768384    -1.203218561340
H                     3.859891564040    -1.605913263894     0.175452577775
H                    -0.256398407935    -0.368610975218    -0.081226124745
H                     3.713296485384    -1.596148965379     2.633527574687
H                    -0.391055486848    -0.331398958592     2.404235793110
H                    -0.108753584570    -1.232587441440     6.884086992684
H                     2.520229151643    -0.402189221899     7.206710769636
H                     4.573245151017    -0.832654186658     4.726465824690
H                     3.841860834856     0.526723071979     3.840855122983
H                     4.126693791732     0.657971069590     5.585200414924
