28
1 1 C10H15N2O
C                    -0.449399957253     2.334061518534    -1.278299351137
C                    -1.322900237406     1.728947917894    -0.330721855183
C                     0.721883092805     1.693262757440    -1.576039342356
C                    -1.020912985226     0.537146111453     0.280267168276
C                     0.228173810052    -0.152873004246    -0.033044063454
C                    -3.267766046524    -0.567526990050     0.704324368526
C                    -2.113523777967     0.683609837741     2.568036529010
C                    -4.102417157471    -1.333022063919     1.724645151535
C                    -2.941101430057    -0.074235677917     3.599769976378
C                    -1.906026096309    -0.152379530621     1.291520833162
N                     1.029023933047     0.508543289450    -0.973074513406
N                    -4.267992494439    -0.496522759229     2.985341703223
O                     0.594614851783    -1.226311378554     0.458257055524
H                    -0.693967862503     3.274493709241    -1.756483749303
H                    -2.255594142758     2.239594570337    -0.093857621806
H                     1.448565357235     2.077070834298    -2.284179919963
H                    -3.122498112561    -1.217573323988    -0.162975436414
H                    -3.825564653316     0.308917827899     0.349513213106
H                    -2.595803288062     1.641956253977     2.335313080847
H                    -1.148654458843     0.922021925044     3.024172123680
H                    -5.105987777812    -1.569417340453     1.364084745019
H                    -3.609979037755    -2.256474958225     2.038457328872
H                    -2.447903718788    -0.996865849830     3.914806003017
H                    -3.174287178015     0.524397724437     4.483118016875
H                    -1.369037452119    -1.065940330116     1.572125865212
H                     1.899617442782     0.032689662892    -1.194771247317
H                    -4.822488194046    -1.014318103654     3.676358894767
H                    -4.807285663048     0.345847205685     2.753847766559
