28
0 1 C11F2H9N5O
C                    -0.413206104038    -0.079217616766    -9.207013940068
C                    -1.611192335748    -0.479248986295    -8.608181106698
C                     0.666410959257     0.329980678999    -8.421216104077
C                    -0.642728834426    -0.084471579161    -6.372225132403
C                    -1.697797012370    -0.465972237002    -7.223273926370
C                     0.520237830634     0.322242171390    -7.040506791309
C                     3.508689709412    -2.024065899535    -1.039768325965
C                     4.110773992775    -1.988802165229    -2.382364671446
C                     1.892720623277    -1.265096485567    -3.036710739557
C                    -0.884665628251    -0.079571234146    -4.909178607960
C                     4.381371246584    -2.444692592098     0.104567602330
N                     2.262257859701    -1.705961788097    -0.815202033378
N                     1.415121701486    -1.316289327057    -1.824093191898
N                    -0.143680576959    -0.437881372783    -3.919818882858
N                     3.193092024665    -1.580941994585    -3.353045128942
N                     1.106937355535    -0.914140343793    -4.123165650849
O                     5.268909603283    -2.269517869401    -2.674211761123
F                    -2.860300800832    -0.849065077942    -6.649007039026
F                     1.579039300881     0.757420581066    -6.293319195721
H                    -0.323158372937    -0.079827710464   -10.288821188462
H                    -2.467720241138    -0.798885944192    -9.192483760466
H                     1.601608576622     0.666058490193    -8.856783369042
H                    -1.886560227946     0.217470465410    -4.610297911762
H                     5.247144391147    -1.779846838486     0.192881225004
H                     4.776128317437    -3.452426201929    -0.062826839509
H                     3.803909943965    -2.423568959703     1.029813005061
H                     3.546772328385    -1.534242555544    -4.305881122339
H                     1.582374646631    -0.745962957811    -5.005096226687
