42
0 1 C20H17N3OS
C                     6.621964231440    11.894816141442    -3.239248887728
C                     7.256182097116    10.661704211301    -3.527044570221
C                     4.523678963230    -0.974067128142    -3.438890489184
C                     3.462223955027    -0.693106478423    -2.571013891668
C                     5.253294298186    11.934937156323    -3.080406187743
C                     6.515547683936     9.504208899927    -3.663003769037
C                     3.057132735888    10.795867297997    -3.029869049735
C                     5.236482264118     0.056886867653    -4.064193824986
C                     2.308342987502     9.649269936183    -3.148212489553
C                     3.091547511195     0.633770726808    -2.310935109151
C                     4.465951598121    10.759036844598    -3.211902829850
C                     5.097769872693     9.512038849357    -3.527319154983
C                     4.300172734306     8.318160149366    -3.663145117562
C                     4.864506076389     1.378056547411    -3.802597272268
C                     2.922182699179     8.410464339720    -3.461589016459
C                     3.796497774651     1.662010207558    -2.929534870382
C                     4.885321955193     3.711461404652    -3.903516224190
C                     4.947525169942     7.073597226562    -4.094195743907
C                     6.568670207167     2.490504907879    -5.260940263284
C                     1.756662674701     6.630593788803    -2.443161782971
N                     5.302786448789     4.874376390266    -4.289785006828
N                     4.562980483699     5.900848244503    -3.720114695613
N                     5.450822196526     2.527517937999    -4.327970677771
O                     2.095694940472     7.328137307011    -3.648727848502
S                     3.533655803368     3.404891308491    -2.776826625461
H                     7.215398965126    12.799305758733    -3.135333612729
H                     8.337370949022    10.624608947043    -3.633069050330
H                     4.802685393261    -2.005724342241    -3.633864816435
H                     2.920155331325    -1.504813433910    -2.094700785830
H                     4.753543261632    12.872128522913    -2.845829132355
H                     7.034748295486     8.571430606684    -3.854421104664
H                     2.577922390113    11.744964818446    -2.801259192370
H                     6.058371721578    -0.169133561575    -4.736137062100
H                     1.228092864217     9.665653913513    -3.032835797098
H                     2.267672924806     0.855536751183    -1.638176611042
H                     5.793776427443     7.153542297948    -4.781729991594
H                     6.287210199373     1.943362273785    -6.166852996847
H                     7.432414115880     2.001549229301    -4.798088171535
H                     6.827877985163     3.514854645083    -5.521729259827
H                     1.138751341271     5.783186104469    -2.745259246889
H                     1.188218699922     7.279570973104    -1.763444853255
H                     2.659370726953     6.264170982518    -1.946415044195
