37
0 1 C17H15N3O2
C                    -2.488724940954    -5.215026435438     0.862533188297
C                    -1.132308730442    -0.554991861451     0.523561719696
C                    -1.419700481386    -4.321852568991     0.851338015772
C                    -0.690559373880    -1.858775005901     0.671271552481
C                    -3.840953666363    -4.792764611753     0.734561549052
C                    -2.514811440652    -0.195571800073     0.407821768254
C                    -1.644895383582    -2.923340877590     0.709719023266
C                    -2.989926706248    -2.549211107950     0.590055069345
C                    -4.074841166804    -3.437682594575     0.597470778855
C                    -3.439686001285    -1.215466680096     0.441624073858
C                    -5.907767220658     0.663086805606     1.440307017685
C                    -5.329634439784     1.953576171841     3.054493549218
C                    -5.307993118617    -2.606158471142     0.434767948081
C                    -3.210794341180     1.950983933773     4.366360404739
C                    -5.162114143729     3.449206386148     5.042828662641
C                    -5.745956614411    -0.143464879036     0.190805299849
C                    -4.407543779913     2.793940481042     3.879453081183
N                    -6.949208656793     0.788671077741     2.198936826887
N                    -6.571130198558     1.634687650440     3.255797444463
N                    -4.841310344791    -1.266276868253     0.352853750084
O                    -6.480853487186    -2.935422358442     0.362609407135
O                    -4.834855626387     1.378242595534     1.908187954552
H                    -2.283278694131    -6.276471272855     0.972666115602
H                    -0.399813639565     0.247604334669     0.496035699233
H                    -0.404709391322    -4.699492175274     0.951402002533
H                     0.372012055360    -2.069786995749     0.757292144465
H                    -4.653303789124    -5.513841037402     0.745674238725
H                    -2.797423266146     0.847278824392     0.313303463409
H                    -3.549414674243     1.157194691093     5.040169118524
H                    -2.507063354936     2.586040905169     4.913358240073
H                    -2.678771559436     1.486670974250     3.531078228801
H                    -5.570019299728     2.691087635129     5.717092892168
H                    -5.995589507583     4.059119634673     4.685392343748
H                    -4.478615126279     4.087862519299     5.610667745534
H                    -6.724974121274    -0.549202514596    -0.070356036364
H                    -5.395612831214     0.496979656125    -0.626765949861
H                    -4.019209920252     3.581191003728     3.219268823161
