49
0 1 C16H25N5O2S
C                     2.167050439125    -5.043804793507    -3.662969933446
C                     1.134462386437    -3.017105787548    -2.846509643664
C                    -4.468583434520    -0.201126652630     0.213991326337
C                     0.059402777200     0.319882120407    -1.606934295447
C                    -2.385529368129     0.790443937816    -0.903119746829
C                     0.901395280010    -0.639329849825    -2.446489249271
C                    -6.438416057275    -1.134528247833     1.327893209600
C                    -6.050098803196    -1.744125260057    -1.007659826653
C                    -7.888648036968    -0.805602647649     0.980297814082
C                    -7.508359036187    -1.404065665525    -1.315882405657
C                    -0.871989320463    -2.232483682776    -1.614109292827
C                    -3.622647243839    -0.085467379545    -1.063927609887
C                    -1.429095737006     0.238068942340    -1.973635501862
C                    -1.896956454011    -1.232094925626    -2.149423593864
C                     2.583965376897    -6.429148238111    -4.046769479968
C                    -9.757938508435    -1.375668846918    -0.440713449838
N                     2.803476423715    -3.965301261941    -3.996840440659
N                     2.230913815079    -2.801514197576    -3.541322655090
N                     0.405796829323    -2.017070393773    -2.283875727735
N                    -5.590805105391    -0.974048326476     0.146516739262
N                    -8.352320919613    -1.623019684536    -0.142481233853
O                    -4.136529788467     0.405933140081     1.235948896793
O                    -3.118456897331    -1.388984813534    -1.414542464111
S                     0.717749652570    -4.730028817183    -2.691260178650
H                     0.194670187941     0.088833385822    -0.544477808789
H                     0.433121048058     1.337892515714    -1.754095006332
H                    -2.608368458051     1.851927172331    -1.032289596741
H                    -1.983730795430     0.654540604237     0.103506781943
H                     0.868898089453    -0.362969432850    -3.508630531524
H                     1.953081110685    -0.607885071029    -2.147381319088
H                    -6.062482481277    -0.474894000729     2.108945966461
H                    -6.371683620071    -2.173358358479     1.676456433195
H                    -5.967505522668    -2.813514428559    -0.775227600584
H                    -5.420550571855    -1.550675820439    -1.872705976980
H                    -8.521537403257    -1.012234521305     1.850106183589
H                    -7.969653103225     0.275889560385     0.755565698524
H                    -7.567898663906    -0.355048512566    -1.669755890810
H                    -7.860825248633    -2.048936482297    -2.128513579726
H                    -0.783620515190    -2.120614360999    -0.525744136473
H                    -1.224071688928    -3.247136168218    -1.807761925910
H                    -4.252278571877     0.294102167776    -1.884740959030
H                    -1.586283403514     0.765526411744    -2.920928512148
H                    -2.084083411318    -1.455816508508    -3.207755054205
H                     2.774063029229    -7.049914466718    -3.164671615339
H                     1.815661065261    -6.926892677016    -4.648203616210
H                     3.501931227414    -6.361632004790    -4.634329034255
H                   -10.365904083193    -1.594305174391     0.442923251536
H                   -10.085679058590    -2.036341879471    -1.249810619741
H                    -9.957564509747    -0.330995117003    -0.746124012895
