42
0 1 C20H17N3OS
C                     5.661684609143    10.228239044596    -6.242289420189
C                     6.301175318257     9.079166318793    -5.716683499511
C                     4.404607163900     1.011620056603     2.904571522855
C                     3.049354799285     1.361053326908     2.901427596378
C                     4.623112139006    10.807050230653    -5.544878587875
C                     5.903557996954     8.542629597233    -4.508015270168
C                     3.107833601325    10.860104146059    -3.589662728696
C                     5.344731283510     1.763396190119     2.188356590031
C                     2.691331151898    10.329198203402    -2.392144633607
C                     2.606441744995     2.476634839806     2.176882900957
C                     4.190611143761    10.275050621579    -4.299939054942
C                     4.849059462402     9.127213836778    -3.749807077617
C                     4.412616768993     8.587577062824    -2.485425997305
C                     4.900149188421     2.874496439892     1.467185346410
C                     3.336049846097     9.195190115600    -1.837325522056
C                     3.536543417571     3.226867860824     1.463484450335
C                     4.986207859997     4.759735185341     0.091324963800
C                     5.166843998431     7.481706057577    -1.884075889112
C                     7.122541340079     3.581826894815     0.556358144091
C                     1.798511379090     7.883262166570    -0.621497588554
N                     5.551360310192     5.652330211296    -0.656801270448
N                     4.632130038356     6.569982741278    -1.145000484912
N                     5.681536327069     3.736759451473     0.701040792183
O                     2.917848833076     8.778409488296    -0.596006407927
S                     3.245139524392     4.667941576911     0.479442919159
H                     5.984239386678    10.641641007703    -7.194196136070
H                     7.107249732681     8.609654187883    -6.274694052360
H                     4.737349131918     0.145424014781     3.469526886290
H                     2.333733333412     0.767181842104     3.462479177195
H                     4.113196343791    11.681862880872    -5.942110853381
H                     6.394758302382     7.645123055332    -4.148224991122
H                     2.616307481489    11.737580351558    -4.003340943475
H                     6.394112134674     1.486210468366     2.195841208998
H                     1.878954522651    10.778134220410    -1.827325670890
H                     1.555123179179     2.751002555326     2.172769415994
H                     6.244097676927     7.443741677960    -2.066357932716
H                     7.355401511757     2.615523373157     0.096564754830
H                     7.609587509151     3.641986321342     1.535350679082
H                     7.488526098760     4.384720197480    -0.080751780877
H                     1.604641910354     7.608519634832     0.416822575181
H                     2.039905231805     6.985092158157    -1.196786957397
H                     0.913606636825     8.376961299704    -1.045161324381
