22
0 1 C7Cl2H5N3O2S3
C                     0.169095402606     2.194035614021     1.494673848209
C                     0.633969676272     1.035295646096     0.792067231244
C                     0.658200033986     2.235776842518     2.766479131326
C                     1.456625779216     0.226056032271     1.540905542222
C                    -1.030311966253    -3.705000722421     0.626667401189
C                    -1.318913929602    -1.397580387137     0.044257540219
C                    -0.886416511596    -5.190256343428     0.738383298618
N                    -1.053965901814    -2.903904129849     1.661606873980
N                    -1.225134176223    -1.590242120017     1.332182730654
N                    -1.423205227344    -0.107980022740    -0.500085682930
O                     0.994107026776    -0.201819451434    -1.519262977488
O                    -0.363848068107     1.955837959908    -1.479913074347
S                     1.684096931892     0.870129357820     3.140523936273
S                    -1.183136127442    -2.871434832222    -0.902522914312
S                     0.065791676542     0.707803010172    -0.854393744283
Cl                    0.374365227040     3.457077648444     3.952997960586
Cl                    2.195054655867    -1.268166194940     1.131729090892
H                    -0.480425654157     2.941184749009     1.055102648548
H                    -1.756445966050    -5.704182926184     0.317720817801
H                     0.003063285162    -5.543223448563     0.207560399740
H                    -0.797156296728    -5.450667168770     1.794669081573
H                    -2.040963279304    -0.010099950328    -1.305979563257
