37
0 1 C17H15N3O2
C                    -2.522631605596    -5.512567323731     0.732390086243
C                    -1.432856832280    -0.771629878190     0.882702031542
C                    -1.523643829236    -4.564271475006     0.943055211013
C                    -0.936542251365    -2.056478474656     1.024581612074
C                    -3.861816536104    -5.156860758137     0.410752399273
C                    -2.797772613065    -0.480618179409     0.553557489579
C                    -1.811128096232    -3.173786518164     0.841385346046
C                    -3.139830163782    -2.867142125522     0.520286906528
C                    -4.156042912354    -3.810342188213     0.307139972391
C                    -3.641405131303    -1.553489164621     0.371149941016
C                    -6.060263905822     0.266708838498     1.079362767187
C                    -6.466380919108     0.753831055627     3.124923649224
C                    -5.399815688915    -3.034855089708     0.003642416701
C                    -6.865834315995     1.814623528671     5.345834242278
C                    -6.031740312231    -0.590254341607     5.179350736673
C                    -5.932893517723    -0.579746702573    -0.145968130664
C                    -6.897915631474     0.512273337897     4.536357070220
N                    -5.711720494622     1.504903261742     1.235387884281
N                    -5.983413970773     1.826789651418     2.576005297498
N                    -5.004080767370    -1.674475775813     0.046760331463
O                    -6.534652145431    -3.418733981060    -0.238557071274
O                    -6.548581449601    -0.286013889906     2.229492138169
H                    -2.270658992430    -6.566258143356     0.817775088771
H                    -0.760992029812     0.070086076610     1.028337701332
H                    -0.516273197929    -4.892895179591     1.188170878177
H                     0.109062883358    -2.213340628387     1.275915534806
H                    -4.618402562374    -5.920617876460     0.254778697037
H                    -3.131570157324     0.548750745428     0.468763757915
H                    -5.848974579489     2.213283974675     5.400907979471
H                    -7.219052573925     1.622590659404     6.363553521327
H                    -7.500021420599     2.581808270666     4.894465878096
H                    -4.987270643632    -0.268535007885     5.246566709553
H                    -6.070038703212    -1.518120150509     4.602141999753
H                    -6.390533018151    -0.800431009353     6.191584622965
H                    -6.895006622636    -1.028478520679    -0.408995007048
H                    -5.608997111913     0.071668125966    -0.963102502252
H                    -7.931836200004     0.145196325702     4.491847260641
