
  -OEChem-05262117483D

 37 40  0     0  0  0  0  0  0999 V2000
   -1.8492   -5.2413    0.3652 C   0  0  0  0  0  0  0  0  0  0  0  0
   -1.8497   -0.4496   -0.4872 C   0  0  0  0  0  0  0  0  0  0  0  0
   -1.1667   -4.1716   -0.2106 C   0  0  0  0  0  0  0  0  0  0  0  0
   -1.1576   -1.6354   -0.6669 C   0  0  0  0  0  0  0  0  0  0  0  0
   -3.0898   -5.0835    1.0430 C   0  0  0  0  0  0  0  0  0  0  0  0
   -3.0984   -0.3582    0.2117 C   0  0  0  0  0  0  0  0  0  0  0  0
   -1.6955   -2.8519   -0.1399 C   0  0  0  0  0  0  0  0  0  0  0  0
   -2.9158   -2.7400    0.5390 C   0  0  0  0  0  0  0  0  0  0  0  0
   -3.6151   -3.8075    1.1215 C   0  0  0  0  0  0  0  0  0  0  0  0
   -3.6166   -1.5260    0.7251 C   0  0  0  0  0  0  0  0  0  0  0  0
   -6.4569   -0.2751    0.6163 C   0  0  0  0  0  0  0  0  0  0  0  0
   -7.4766   -0.1610   -1.2628 C   0  0  0  0  0  0  0  0  0  0  0  0
   -4.8585   -3.2263    1.7186 C   0  0  0  0  0  0  0  0  0  0  0  0
   -9.5315   -1.3236   -2.0865 C   0  0  0  0  0  0  0  0  0  0  0  0
   -7.3025   -1.6072   -3.2909 C   0  0  0  0  0  0  0  0  0  0  0  0
   -5.8281   -0.9067    1.8162 C   0  0  0  0  0  0  0  0  0  0  0  0
   -8.1978   -0.6570   -2.4728 C   0  0  0  0  0  0  0  0  0  0  0  0
   -6.4617    0.9759    0.2797 N   0  0  0  0  0  0  0  0  0  0  0  0
   -7.1368    1.0528   -0.9508 N   0  0  0  0  0  0  0  0  0  0  0  0
   -4.7794   -1.8366    1.4516 N   0  0  0  0  0  0  0  0  0  0  0  0
   -5.7780   -3.7653    2.3168 O   0  0  0  0  0  0  0  0  0  0  0  0
   -7.0793   -1.0661   -0.3084 O   0  0  0  0  0  0  0  0  0  0  0  0
   -1.4188   -6.2366    0.2933 H   0  0  0  0  0  0  0  0  0  0  0  0
   -1.4343    0.4680   -0.8953 H   0  0  0  0  0  0  0  0  0  0  0  0
   -0.2219   -4.3504   -0.7190 H   0  0  0  0  0  0  0  0  0  0  0  0
   -0.2144   -1.6408   -1.2067 H   0  0  0  0  0  0  0  0  0  0  0  0
   -3.5987   -5.9387    1.4788 H   0  0  0  0  0  0  0  0  0  0  0  0
   -3.6005    0.5993    0.3096 H   0  0  0  0  0  0  0  0  0  0  0  0
   -9.3604   -2.2122   -1.4711 H   0  0  0  0  0  0  0  0  0  0  0  0
  -10.0677   -1.6330   -2.9890 H   0  0  0  0  0  0  0  0  0  0  0  0
  -10.1718   -0.6352   -1.5268 H   0  0  0  0  0  0  0  0  0  0  0  0
   -7.0589   -2.5059   -2.7158 H   0  0  0  0  0  0  0  0  0  0  0  0
   -6.3664   -1.1200   -3.5795 H   0  0  0  0  0  0  0  0  0  0  0  0
   -7.8236   -1.9169   -4.2022 H   0  0  0  0  0  0  0  0  0  0  0  0
   -5.4396   -0.1007    2.4459 H   0  0  0  0  0  0  0  0  0  0  0  0
   -6.5671   -1.4773    2.3861 H   0  0  0  0  0  0  0  0  0  0  0  0
   -8.4043    0.2387   -3.0664 H   0  0  0  0  0  0  0  0  0  0  0  0
  1  3  1  0  0  0  0
  1  5  2  0  0  0  0
  1 23  1  0  0  0  0
  2  4  2  0  0  0  0
  2  6  1  0  0  0  0
  2 24  1  0  0  0  0
  3  7  2  0  0  0  0
  3 25  1  0  0  0  0
  4  7  1  0  0  0  0
  4 26  1  0  0  0  0
  5  9  1  0  0  0  0
  5 27  1  0  0  0  0
  6 10  2  0  0  0  0
  6 28  1  0  0  0  0
  7  8  1  0  0  0  0
  8  9  2  0  0  0  0
  8 10  1  0  0  0  0
  9 13  1  0  0  0  0
 10 20  1  0  0  0  0
 11 16  1  0  0  0  0
 11 18  2  0  0  0  0
 11 22  1  0  0  0  0
 12 17  1  0  0  0  0
 12 19  2  0  0  0  0
 12 22  1  0  0  0  0
 13 20  1  0  0  0  0
 13 21  2  0  0  0  0
 14 17  1  0  0  0  0
 14 29  1  0  0  0  0
 14 30  1  0  0  0  0
 14 31  1  0  0  0  0
 15 17  1  0  0  0  0
 15 32  1  0  0  0  0
 15 33  1  0  0  0  0
 15 34  1  0  0  0  0
 16 20  1  0  0  0  0
 16 35  1  0  0  0  0
 16 36  1  0  0  0  0
 17 37  1  0  0  0  0
 18 19  1  0  0  0  0
M  END
$$$$
