28
0 1 C11F2H9N5O
C                    -0.074046523523    -0.085851953791    -9.307527314700
C                    -1.312046738730    -0.496045780059    -8.803078570959
C                     0.944830097836     0.320017774985    -8.442847815386
C                    -0.507027810587    -0.122882346215    -6.503062721336
C                    -1.498367208801    -0.498002359877    -7.428513534785
C                     0.701935265714     0.299186677045    -7.075592192895
C                     3.164268599267    -2.152029479412    -0.891797836362
C                     1.778590614122    -1.699395355093    -0.665300083998
C                     1.798749021992    -1.393532006847    -3.047636963057
C                    -0.835961486015    -0.129420801621    -5.062790565846
C                     3.955720910716    -2.586364507617     0.305045811789
N                     3.719710589436    -2.185868171241    -2.074526370349
N                     3.034319572954    -1.798634560961    -3.198137295443
N                    -0.140064470949    -0.513585750297    -4.046905134545
N                     1.148488990421    -1.325811299451    -1.853622571446
N                     1.100502973412    -1.024960196034    -4.179473709761
O                     1.204878934215    -1.639349246574     0.416706685372
F                    -2.696948119276    -0.891451130037    -6.938739573611
F                     1.687740100025     0.734108271728    -6.246799687516
H                     0.094554183060    -0.076449903536   -10.379897386055
H                    -2.121614590595    -0.812645795236    -9.452307807658
H                     1.908050855320     0.661756448807    -8.806916222301
H                    -1.844535842015     0.182941112653    -4.806787670250
H                     3.456514683268    -3.416992157229     0.815203948999
H                     4.029111788966    -1.771798127196     1.033413585012
H                     4.954769976380    -2.892470494197    -0.008499607315
H                     0.189086500518    -0.984688767823    -1.826576234249
H                     1.649446736227    -0.976954763512    -5.034290070840
