
  -OEChem-05262117483D

 59 61  0     0  0  0  0  0  0999 V2000
    2.3198    0.0202   -0.7077 C   0  0  0  0  0  0  0  0  0  0  0  0
   -1.6241    0.7070    3.3066 C   0  0  0  0  0  0  0  0  0  0  0  0
   -2.0698    2.7075    2.0263 C   0  0  0  0  0  0  0  0  0  0  0  0
    2.8760   -0.6105   -1.8130 C   0  0  0  0  0  0  0  0  0  0  0  0
   -2.2747    1.2574    4.4107 C   0  0  0  0  0  0  0  0  0  0  0  0
   -2.7171    3.2748    3.1227 C   0  0  0  0  0  0  0  0  0  0  0  0
    0.8853   -1.9752   -2.0039 C   0  0  0  0  0  0  0  0  0  0  0  0
   -1.5027    1.4210    2.1002 C   0  0  0  0  0  0  0  0  0  0  0  0
    1.0374   -0.3094   -0.2295 C   0  0  0  0  0  0  0  0  0  0  0  0
    0.3227   -1.3326   -0.8913 C   0  0  0  0  0  0  0  0  0  0  0  0
    2.1557   -1.6186   -2.4718 C   0  0  0  0  0  0  0  0  0  0  0  0
   -2.8202    2.5382    4.3058 C   0  0  0  0  0  0  0  0  0  0  0  0
   -0.8192    0.8291    0.9222 C   0  0  0  0  0  0  0  0  0  0  0  0
    0.4614    0.3806    0.9568 C   0  0  0  0  0  0  0  0  0  0  0  0
   -1.0400   -1.7558   -0.3897 C   0  0  0  0  0  0  0  0  0  0  0  0
   -1.6293    0.7297   -0.3601 C   0  0  0  0  0  0  0  0  0  0  0  0
   -2.1386   -0.6999   -0.6336 C   0  0  0  0  0  0  0  0  0  0  0  0
    2.0815   -3.2178   -4.2512 C   0  0  0  0  0  0  0  0  0  0  0  0
   -5.3883    2.7419    5.4632 C   0  0  0  0  0  0  0  0  0  0  0  0
    1.3733    0.5358    2.1548 C   0  0  0  0  0  0  0  0  0  0  0  0
    1.7469   -0.8056    2.8092 C   0  0  0  0  0  0  0  0  0  0  0  0
    2.6821   -0.6358    4.0105 C   0  0  0  0  0  0  0  0  0  0  0  0
    3.0546   -1.9668    4.6738 C   0  0  0  0  0  0  0  0  0  0  0  0
    3.9889   -1.7894    5.8703 C   0  0  0  0  0  0  0  0  0  0  0  0
   -3.1878    2.5760    6.9334 O   0  0  0  0  0  0  0  0  0  0  0  0
   -3.6239    4.7172    5.5878 O   0  0  0  0  0  0  0  0  0  0  0  0
    4.3029   -3.0230    6.5259 O   0  0  0  0  0  0  0  0  0  0  0  0
    2.7762   -2.1924   -3.5485 O   0  0  0  0  0  0  0  0  0  0  0  0
   -3.6702    3.2517    5.7177 S   0  0  0  0  0  0  0  0  0  0  0  0
    2.8894    0.8040   -0.2166 H   0  0  0  0  0  0  0  0  0  0  0  0
   -1.2041   -0.2916    3.3751 H   0  0  0  0  0  0  0  0  0  0  0  0
   -1.9717    3.2823    1.1093 H   0  0  0  0  0  0  0  0  0  0  0  0
    3.8602   -0.3401   -2.1841 H   0  0  0  0  0  0  0  0  0  0  0  0
   -2.3475    0.7136    5.3480 H   0  0  0  0  0  0  0  0  0  0  0  0
   -3.1153    4.2843    3.0785 H   0  0  0  0  0  0  0  0  0  0  0  0
    0.3171   -2.7621   -2.4886 H   0  0  0  0  0  0  0  0  0  0  0  0
   -1.3326   -2.7044   -0.8506 H   0  0  0  0  0  0  0  0  0  0  0  0
   -0.9708   -1.9360    0.6888 H   0  0  0  0  0  0  0  0  0  0  0  0
   -2.4829    1.4130   -0.3260 H   0  0  0  0  0  0  0  0  0  0  0  0
   -1.0024    1.0388   -1.2030 H   0  0  0  0  0  0  0  0  0  0  0  0
   -2.4897   -0.7501   -1.6713 H   0  0  0  0  0  0  0  0  0  0  0  0
   -2.9977   -0.9308    0.0076 H   0  0  0  0  0  0  0  0  0  0  0  0
    2.7430   -3.5248   -5.0624 H   0  0  0  0  0  0  0  0  0  0  0  0
    1.1389   -2.8464   -4.6721 H   0  0  0  0  0  0  0  0  0  0  0  0
    1.8776   -4.0795   -3.6035 H   0  0  0  0  0  0  0  0  0  0  0  0
   -5.9557    3.1532    6.3010 H   0  0  0  0  0  0  0  0  0  0  0  0
   -5.7436    3.1555    4.5185 H   0  0  0  0  0  0  0  0  0  0  0  0
   -5.4375    1.6522    5.4636 H   0  0  0  0  0  0  0  0  0  0  0  0
    0.9204    1.1958    2.8984 H   0  0  0  0  0  0  0  0  0  0  0  0
    2.3004    1.0300    1.8373 H   0  0  0  0  0  0  0  0  0  0  0  0
    0.8323   -1.3212    3.1296 H   0  0  0  0  0  0  0  0  0  0  0  0
    2.2171   -1.4557    2.0619 H   0  0  0  0  0  0  0  0  0  0  0  0
    3.5952   -0.1178    3.6863 H   0  0  0  0  0  0  0  0  0  0  0  0
    2.2058    0.0200    4.7518 H   0  0  0  0  0  0  0  0  0  0  0  0
    2.1501   -2.4873    5.0113 H   0  0  0  0  0  0  0  0  0  0  0  0
    3.5360   -2.6209    3.9319 H   0  0  0  0  0  0  0  0  0  0  0  0
    3.5099   -1.1721    6.6360 H   0  0  0  0  0  0  0  0  0  0  0  0
    4.9090   -1.2711    5.5588 H   0  0  0  0  0  0  0  0  0  0  0  0
    4.7534   -3.5947    5.8850 H   0  0  0  0  0  0  0  0  0  0  0  0
  1  4  1  0  0  0  0
  1  9  2  0  0  0  0
  1 30  1  0  0  0  0
  2  5  2  0  0  0  0
  2  8  1  0  0  0  0
  2 31  1  0  0  0  0
  3  6  1  0  0  0  0
  3  8  2  0  0  0  0
  3 32  1  0  0  0  0
  4 11  2  0  0  0  0
  4 33  1  0  0  0  0
  5 12  1  0  0  0  0
  5 34  1  0  0  0  0
  6 12  2  0  0  0  0
  6 35  1  0  0  0  0
  7 10  2  0  0  0  0
  7 11  1  0  0  0  0
  7 36  1  0  0  0  0
  8 13  1  0  0  0  0
  9 10  1  0  0  0  0
  9 14  1  0  0  0  0
 10 15  1  0  0  0  0
 11 28  1  0  0  0  0
 12 29  1  0  0  0  0
 13 14  2  0  0  0  0
 13 16  1  0  0  0  0
 14 20  1  0  0  0  0
 15 17  1  0  0  0  0
 15 37  1  0  0  0  0
 15 38  1  0  0  0  0
 16 17  1  0  0  0  0
 16 39  1  0  0  0  0
 16 40  1  0  0  0  0
 17 41  1  0  0  0  0
 17 42  1  0  0  0  0
 18 28  1  0  0  0  0
 18 43  1  0  0  0  0
 18 44  1  0  0  0  0
 18 45  1  0  0  0  0
 19 29  1  0  0  0  0
 19 46  1  0  0  0  0
 19 47  1  0  0  0  0
 19 48  1  0  0  0  0
 20 21  1  0  0  0  0
 20 49  1  0  0  0  0
 20 50  1  0  0  0  0
 21 22  1  0  0  0  0
 21 51  1  0  0  0  0
 21 52  1  0  0  0  0
 22 23  1  0  0  0  0
 22 53  1  0  0  0  0
 22 54  1  0  0  0  0
 23 24  1  0  0  0  0
 23 55  1  0  0  0  0
 23 56  1  0  0  0  0
 24 27  1  0  0  0  0
 24 57  1  0  0  0  0
 24 58  1  0  0  0  0
 25 29  2  0  0  0  0
 26 29  2  0  0  0  0
 27 59  1  0  0  0  0
M  END
$$$$
