
  -OEChem-05262117483D

 34 35  0     1  0  0  0  0  0999 V2000
   -0.1093   -1.9057    0.3198 C   0  0  0  0  0  0  0  0  0  0  0  0
   -0.9566   -0.9111   -0.1735 C   0  0  0  0  0  0  0  0  0  0  0  0
   -0.6515   -3.1133    0.7775 C   0  0  0  0  0  0  0  0  0  0  0  0
   -2.3397   -1.1213   -0.2014 C   0  0  0  0  0  0  0  0  0  0  0  0
   -2.0302   -3.3191    0.7451 C   0  0  0  0  0  0  0  0  0  0  0  0
   -2.8861   -2.3214    0.2595 C   0  0  0  0  0  0  0  0  0  0  0  0
   -4.8359   -3.7708   -0.5352 C   0  0  0  0  0  0  0  0  0  0  0  0
   -4.9891   -2.4533    1.6864 C   0  0  0  0  0  0  0  0  0  0  0  0
   -3.3919    0.3080    4.7805 C   0  0  0  0  0  0  0  0  0  0  0  0
   -3.9254   -0.4265    5.9938 C   0  0  0  0  0  0  0  0  0  0  0  0
   -3.5238   -1.1989    4.7538 C   0  0  0  0  0  0  0  0  0  0  0  0
   -2.2639   -2.0457    4.7829 C   0  0  0  0  0  0  0  0  0  0  0  0
   -4.6527   -1.7746    3.9445 C   0  0  0  0  0  0  0  0  0  0  0  0
   -4.3857   -2.5219    0.2798 C   0  0  1  0  0  0  0  0  0  0  0  0
   -4.1293   -4.2488   -1.3911 O   0  0  0  0  0  0  0  0  0  0  0  0
   -6.1169   -2.8570    1.9629 O   0  0  0  0  0  0  0  0  0  0  0  0
   -6.0741   -4.2324   -0.2932 O   0  0  0  0  0  0  0  0  0  0  0  0
   -4.1830   -1.8726    2.5629 O   0  0  0  0  0  0  0  0  0  0  0  0
    0.9657   -1.7466    0.3422 H   0  0  0  0  0  0  0  0  0  0  0  0
   -0.5447    0.0265   -0.5375 H   0  0  0  0  0  0  0  0  0  0  0  0
    0.0027   -3.8956    1.1537 H   0  0  0  0  0  0  0  0  0  0  0  0
   -2.9946   -0.3410   -0.5836 H   0  0  0  0  0  0  0  0  0  0  0  0
   -2.4415   -4.2643    1.0910 H   0  0  0  0  0  0  0  0  0  0  0  0
   -4.0901    0.8966    4.1921 H   0  0  0  0  0  0  0  0  0  0  0  0
   -2.3892    0.7219    4.8311 H   0  0  0  0  0  0  0  0  0  0  0  0
   -3.2824   -0.5158    6.8645 H   0  0  0  0  0  0  0  0  0  0  0  0
   -4.9819   -0.3265    6.2284 H   0  0  0  0  0  0  0  0  0  0  0  0
   -1.8562   -2.1709    3.7748 H   0  0  0  0  0  0  0  0  0  0  0  0
   -2.4696   -3.0403    5.1969 H   0  0  0  0  0  0  0  0  0  0  0  0
   -1.4942   -1.5783    5.4047 H   0  0  0  0  0  0  0  0  0  0  0  0
   -5.5462   -1.1452    3.9607 H   0  0  0  0  0  0  0  0  0  0  0  0
   -4.9294   -2.7794    4.2767 H   0  0  0  0  0  0  0  0  0  0  0  0
   -4.8603   -1.6839   -0.2503 H   0  0  0  0  0  0  0  0  0  0  0  0
   -6.4377   -3.7858    0.5113 H   0  0  0  0  0  0  0  0  0  0  0  0
  1  2  1  0  0  0  0
  1  3  2  0  0  0  0
  1 19  1  0  0  0  0
  2  4  2  0  0  0  0
  2 20  1  0  0  0  0
  3  5  1  0  0  0  0
  3 21  1  0  0  0  0
  4  6  1  0  0  0  0
  4 22  1  0  0  0  0
  5  6  2  0  0  0  0
  5 23  1  0  0  0  0
  6 14  1  0  0  0  0
  7 14  1  0  0  0  0
  7 15  2  0  0  0  0
  7 17  1  0  0  0  0
  8 14  1  0  0  0  0
  8 16  2  0  0  0  0
  8 18  1  0  0  0  0
  9 10  1  0  0  0  0
  9 11  1  0  0  0  0
  9 24  1  0  0  0  0
  9 25  1  0  0  0  0
 10 11  1  0  0  0  0
 10 26  1  0  0  0  0
 10 27  1  0  0  0  0
 11 12  1  0  0  0  0
 11 13  1  0  0  0  0
 12 28  1  0  0  0  0
 12 29  1  0  0  0  0
 12 30  1  0  0  0  0
 13 18  1  0  0  0  0
 13 31  1  0  0  0  0
 13 32  1  0  0  0  0
 14 33  1  0  0  0  0
 17 34  1  0  0  0  0
M  END
$$$$
