
  -OEChem-05262117483D

 54 56  0     0  0  0  0  0  0999 V2000
    6.8013   -1.2038   -1.6968 C   0  0  0  0  0  0  0  0  0  0  0  0
    6.1398   -0.5022   -2.6995 C   0  0  0  0  0  0  0  0  0  0  0  0
    7.2997   -0.5323   -0.5742 C   0  0  0  0  0  0  0  0  0  0  0  0
    6.3913    1.5850   -1.4308 C   0  0  0  0  0  0  0  0  0  0  0  0
    5.9468    0.8721   -2.5602 C   0  0  0  0  0  0  0  0  0  0  0  0
    7.0819    0.8523   -0.4471 C   0  0  0  0  0  0  0  0  0  0  0  0
    8.3314   -3.8240    0.2217 C   0  0  0  0  0  0  0  0  0  0  0  0
    7.5039   -2.7291    2.3971 C   0  0  0  0  0  0  0  0  0  0  0  0
    8.1040   -1.3208    0.4196 C   0  0  0  0  0  0  0  0  0  0  0  0
    9.3194   -4.5443    1.1151 C   0  0  0  0  0  0  0  0  0  0  0  0
    8.8030   -3.0611    3.1122 C   0  0  0  0  0  0  0  0  0  0  0  0
    9.9038   -3.6361    2.2060 C   0  0  0  0  0  0  0  0  0  0  0  0
    2.7081    6.5876    0.7116 C   0  0  0  0  0  0  0  0  0  0  0  0
    4.0668    6.8089    0.0322 C   0  0  0  0  0  0  0  0  0  0  0  0
    1.9769    5.3806    0.1068 C   0  0  0  0  0  0  0  0  0  0  0  0
    4.9326    5.5399    0.0831 C   0  0  0  0  0  0  0  0  0  0  0  0
    2.8462    4.1157    0.1523 C   0  0  0  0  0  0  0  0  0  0  0  0
    7.5178   -2.6782    0.8614 C   0  0  0  0  0  0  0  0  0  0  0  0
    4.1917    4.3462   -0.5295 C   0  0  0  0  0  0  0  0  0  0  0  0
    6.4009    2.4925   -4.8445 C   0  0  0  0  0  0  0  0  0  0  0  0
    6.0925    3.0545   -1.2127 C   0  0  0  0  0  0  0  0  0  0  0  0
    8.1440   -4.1249   -0.9441 O   0  0  0  0  0  0  0  0  0  0  0  0
    6.4635   -2.5241    2.9939 O   0  0  0  0  0  0  0  0  0  0  0  0
    9.1715   -0.9244    0.8526 O   0  0  0  0  0  0  0  0  0  0  0  0
    4.5779    0.5778   -4.8160 O   0  0  0  0  0  0  0  0  0  0  0  0
    4.1365    2.6860   -3.4532 O   0  0  0  0  0  0  0  0  0  0  0  0
    4.9319    3.1219   -0.4006 O   0  0  0  0  0  0  0  0  0  0  0  0
    5.0650    1.6618   -3.9505 S   0  0  0  0  0  0  0  0  0  0  0  0
    7.6052    1.6737    1.0070 Cl  0  0  0  0  0  0  0  0  0  0  0  0
    6.9591   -2.2741   -1.7957 H   0  0  0  0  0  0  0  0  0  0  0  0
    5.7587   -1.0107   -3.5783 H   0  0  0  0  0  0  0  0  0  0  0  0
    8.7654   -5.3768    1.5750 H   0  0  0  0  0  0  0  0  0  0  0  0
   10.0888   -4.9891    0.4792 H   0  0  0  0  0  0  0  0  0  0  0  0
    9.1429   -2.1416    3.6009 H   0  0  0  0  0  0  0  0  0  0  0  0
    8.5361   -3.7578    3.9140 H   0  0  0  0  0  0  0  0  0  0  0  0
   10.4606   -2.8214    1.7391 H   0  0  0  0  0  0  0  0  0  0  0  0
   10.6133   -4.2077    2.8112 H   0  0  0  0  0  0  0  0  0  0  0  0
    2.0905    7.4892    0.6244 H   0  0  0  0  0  0  0  0  0  0  0  0
    2.8657    6.4149    1.7852 H   0  0  0  0  0  0  0  0  0  0  0  0
    3.9036    7.0945   -1.0163 H   0  0  0  0  0  0  0  0  0  0  0  0
    4.5999    7.6430    0.5030 H   0  0  0  0  0  0  0  0  0  0  0  0
    1.0340    5.2015    0.6359 H   0  0  0  0  0  0  0  0  0  0  0  0
    1.7122    5.6028   -0.9359 H   0  0  0  0  0  0  0  0  0  0  0  0
    5.8800    5.7134   -0.4415 H   0  0  0  0  0  0  0  0  0  0  0  0
    5.1810    5.2944    1.1238 H   0  0  0  0  0  0  0  0  0  0  0  0
    3.0314    3.8252    1.1944 H   0  0  0  0  0  0  0  0  0  0  0  0
    2.3428    3.2748   -0.3349 H   0  0  0  0  0  0  0  0  0  0  0  0
    6.4863   -2.7586    0.5178 H   0  0  0  0  0  0  0  0  0  0  0  0
    4.0207    4.5308   -1.6006 H   0  0  0  0  0  0  0  0  0  0  0  0
    5.9313    2.9683   -5.7081 H   0  0  0  0  0  0  0  0  0  0  0  0
    6.8654    3.2408   -4.2016 H   0  0  0  0  0  0  0  0  0  0  0  0
    7.1233    1.7408   -5.1646 H   0  0  0  0  0  0  0  0  0  0  0  0
    6.9486    3.5366   -0.7268 H   0  0  0  0  0  0  0  0  0  0  0  0
    5.9152    3.5634   -2.1631 H   0  0  0  0  0  0  0  0  0  0  0  0
  1  2  1  0  0  0  0
  1  3  2  0  0  0  0
  1 30  1  0  0  0  0
  2  5  2  0  0  0  0
  2 31  1  0  0  0  0
  3  6  1  0  0  0  0
  3  9  1  0  0  0  0
  4  5  1  0  0  0  0
  4  6  2  0  0  0  0
  4 21  1  0  0  0  0
  5 28  1  0  0  0  0
  6 29  1  0  0  0  0
  7 10  1  0  0  0  0
  7 18  1  0  0  0  0
  7 22  2  0  0  0  0
  8 11  1  0  0  0  0
  8 18  1  0  0  0  0
  8 23  2  0  0  0  0
  9 18  1  0  0  0  0
  9 24  2  0  0  0  0
 10 12  1  0  0  0  0
 10 32  1  0  0  0  0
 10 33  1  0  0  0  0
 11 12  1  0  0  0  0
 11 34  1  0  0  0  0
 11 35  1  0  0  0  0
 12 36  1  0  0  0  0
 12 37  1  0  0  0  0
 13 14  1  0  0  0  0
 13 15  1  0  0  0  0
 13 38  1  0  0  0  0
 13 39  1  0  0  0  0
 14 16  1  0  0  0  0
 14 40  1  0  0  0  0
 14 41  1  0  0  0  0
 15 17  1  0  0  0  0
 15 42  1  0  0  0  0
 15 43  1  0  0  0  0
 16 19  1  0  0  0  0
 16 44  1  0  0  0  0
 16 45  1  0  0  0  0
 17 19  1  0  0  0  0
 17 46  1  0  0  0  0
 17 47  1  0  0  0  0
 18 48  1  0  0  0  0
 19 27  1  0  0  0  0
 19 49  1  0  0  0  0
 20 28  1  0  0  0  0
 20 50  1  0  0  0  0
 20 51  1  0  0  0  0
 20 52  1  0  0  0  0
 21 27  1  0  0  0  0
 21 53  1  0  0  0  0
 21 54  1  0  0  0  0
 25 28  2  0  0  0  0
 26 28  2  0  0  0  0
M  END
$$$$
