54
0 1 C21ClH25O6S
C                     6.635576759549    -1.737297985021    -1.319895521578
C                     5.336670184182    -1.430320761081    -1.712096851715
C                     7.271028634729    -0.984279999595    -0.325550836024
C                     5.296521085866     0.470048086881    -0.157771724687
C                     4.684828992273    -0.343207839095    -1.130239509962
C                     6.600131612711     0.116769666793     0.238607803494
C                    10.954713421758    -1.013974874023    -0.680330172018
C                     9.849072629766    -3.311202885807    -1.015304463516
C                     8.628188751981    -1.430862754964     0.138007204582
C                    11.894407653678    -1.568019873399     0.377599224770
C                    11.112492856557    -3.861741086017    -0.387829410901
C                    11.601259327824    -3.017757495742     0.797722489884
C                     3.898051098921     6.890734151672    -0.172478019756
C                     3.951540537754     6.176716214458    -1.530681843804
C                     3.390003484472     5.949020955233     0.928238571912
C                     4.785045249776     4.889306331499    -1.456784389501
C                     4.229902890327     4.663586205046     0.998198154001
C                     9.653020183324    -1.780528762698    -0.961242708945
C                     4.268567747110     3.959506416935    -0.362652450409
C                     1.969590794062    -0.694217163179    -0.385854188169
C                     4.645184914228     1.718610245288     0.401998887440
O                    11.206617040800    -0.007337454784    -1.315936143603
O                     9.018083065276    -4.011178026215    -1.566635365896
O                     8.912583380790    -1.527013211664     1.318679874522
O                     2.726531416690     1.381560870027    -1.875463291879
O                     2.789925296039    -0.957789563057    -2.885485624897
O                     5.133050710007     2.812347391722    -0.357427053000
S                     2.987403684559    -0.057888510153    -1.739774783081
Cl                    7.433614686677     1.126363196934     1.400103144237
H                     7.152417515911    -2.583018345485    -1.764908536253
H                     4.831148607732    -2.013378985845    -2.474058752226
H                    12.904904849157    -1.462673549761    -0.031307732482
H                    11.836818551990    -0.895018773998     1.240014226629
H                    10.929409908537    -4.904378478524    -0.116708001773
H                    11.872226577047    -3.867728996036    -1.184270455835
H                    10.845482450551    -3.028302494687     1.585435672206
H                    12.507526536034    -3.467914308700     1.212958851085
H                     3.258503841930     7.779100443160    -0.234829668713
H                     4.904589757817     7.243634522269     0.091129898497
H                     2.929943564525     5.930844443019    -1.850980040376
H                     4.365818871241     6.843039658388    -2.295821278837
H                     3.400573931550     6.454574663323     1.900759063237
H                     2.342611223056     5.686937802903     0.723742526271
H                     4.768196115094     4.354617523217    -2.411633822809
H                     5.832722658332     5.132823878196    -1.238058842751
H                     5.260214337986     4.901935018629     1.292504652974
H                     3.823043007489     3.993458410896     1.765172606264
H                     9.276059109228    -1.450012085395    -1.929360218331
H                     3.255952636263     3.622965861437    -0.630620307327
H                     0.933346349103    -0.569141340383    -0.707295973736
H                     2.203680339653    -1.749836309851    -0.243094120260
H                     2.160499648599    -0.119336054554     0.520833107370
H                     3.557000429558     1.662213390440     0.321966554732
H                     4.900245302878     1.823497274858     1.462800769254
