
  -OEChem-05262117483D

 33 34  0     1  0  0  0  0  0999 V2000
   -3.5575   -5.6868    2.6685 C   0  0  0  0  0  0  0  0  0  0  0  0
   -3.3409   -6.1085    1.3530 C   0  0  0  0  0  0  0  0  0  0  0  0
   -3.5833   -4.3140    2.9502 C   0  0  0  0  0  0  0  0  0  0  0  0
   -3.1454   -5.1622    0.3399 C   0  0  0  0  0  0  0  0  0  0  0  0
   -3.3961   -3.3727    1.9362 C   0  0  0  0  0  0  0  0  0  0  0  0
   -3.1649   -3.7855    0.6119 C   0  0  0  0  0  0  0  0  0  0  0  0
   -4.2504   -1.7956   -0.7734 C   0  0  0  0  0  0  0  0  0  0  0  0
   -1.8003   -1.8854   -0.3007 C   0  0  0  0  0  0  0  0  0  0  0  0
   -0.7367   -0.6120   -4.1035 C   0  0  0  0  0  0  0  0  0  0  0  0
   -1.7572    0.3066   -3.4488 C   0  0  0  0  0  0  0  0  0  0  0  0
   -0.3755    0.1619   -2.8548 C   0  0  0  0  0  0  0  0  0  0  0  0
    0.5989    1.3180   -2.9847 C   0  0  0  0  0  0  0  0  0  0  0  0
   -0.2199   -0.5796   -1.5396 C   0  0  0  0  0  0  0  0  0  0  0  0
   -2.9658   -2.8031   -0.5041 C   0  0  1  0  0  0  0  0  0  0  0  0
   -5.0413   -1.6693    0.1772 O   0  5  0  0  0  0  0  0  0  0  0  0
   -4.2252   -1.2954   -1.9219 O   0  0  0  0  0  0  0  0  0  0  0  0
   -1.4632   -1.3423    0.7404 O   0  0  0  0  0  0  0  0  0  0  0  0
   -1.1466   -1.6714   -1.4853 O   0  0  0  0  0  0  0  0  0  0  0  0
   -3.7088   -6.4159    3.4626 H   0  0  0  0  0  0  0  0  0  0  0  0
   -3.3223   -7.1705    1.1140 H   0  0  0  0  0  0  0  0  0  0  0  0
   -3.7606   -3.9754    3.9696 H   0  0  0  0  0  0  0  0  0  0  0  0
   -2.9767   -5.4969   -0.6824 H   0  0  0  0  0  0  0  0  0  0  0  0
   -3.4364   -2.3126    2.1500 H   0  0  0  0  0  0  0  0  0  0  0  0
   -0.9156   -1.6783   -4.0061 H   0  0  0  0  0  0  0  0  0  0  0  0
   -0.2761   -0.3023   -5.0399 H   0  0  0  0  0  0  0  0  0  0  0  0
   -1.9822    1.2470   -3.9485 H   0  0  0  0  0  0  0  0  0  0  0  0
   -2.5937   -0.1704   -2.9411 H   0  0  0  0  0  0  0  0  0  0  0  0
    1.6408    0.9739   -2.9286 H   0  0  0  0  0  0  0  0  0  0  0  0
    0.4461    2.0566   -2.1869 H   0  0  0  0  0  0  0  0  0  0  0  0
    0.4700    1.8329   -3.9429 H   0  0  0  0  0  0  0  0  0  0  0  0
   -0.3961    0.0882   -0.6917 H   0  0  0  0  0  0  0  0  0  0  0  0
    0.7977   -0.9856   -1.4456 H   0  0  0  0  0  0  0  0  0  0  0  0
   -2.8215   -3.3249   -1.4506 H   0  0  0  0  0  0  0  0  0  0  0  0
  1  2  1  0  0  0  0
  1  3  2  0  0  0  0
  1 19  1  0  0  0  0
  2  4  2  0  0  0  0
  2 20  1  0  0  0  0
  3  5  1  0  0  0  0
  3 21  1  0  0  0  0
  4  6  1  0  0  0  0
  4 22  1  0  0  0  0
  5  6  2  0  0  0  0
  5 23  1  0  0  0  0
  6 14  1  0  0  0  0
  7 14  1  0  0  0  0
  7 15  1  0  0  0  0
  7 16  2  0  0  0  0
  8 14  1  0  0  0  0
  8 17  2  0  0  0  0
  8 18  1  0  0  0  0
  9 10  1  0  0  0  0
  9 11  1  0  0  0  0
  9 24  1  0  0  0  0
  9 25  1  0  0  0  0
 10 11  1  0  0  0  0
 10 26  1  0  0  0  0
 10 27  1  0  0  0  0
 11 12  1  0  0  0  0
 11 13  1  0  0  0  0
 12 28  1  0  0  0  0
 12 29  1  0  0  0  0
 12 30  1  0  0  0  0
 13 18  1  0  0  0  0
 13 31  1  0  0  0  0
 13 32  1  0  0  0  0
 14 33  1  0  0  0  0
M  CHG  1  15  -1
M  END
$$$$
