35
0 1 C14H18N2O
C                     3.433348786681    -2.556215122882    -6.119012053770
C                     2.427542450835    -2.229034992560    -7.028971659468
C                     3.109636624501    -2.727628718554    -4.769892694274
C                     1.105227562800    -2.073146138598    -6.598730721881
C                     1.409152582549    -3.705900281345    -0.944371788038
C                     1.944439705044    -3.888641481431    -2.196809725004
C                     0.685187664263    -2.066022593117    -2.130872249556
C                     1.792857178804    -2.588917380192    -4.327846416379
C                     0.775931750240    -2.251329884625    -5.249481713969
C                    -4.295612375065    -3.180604664892    -3.054713739856
C                    -2.908895223464    -4.615869708573    -4.607042212474
C                    -2.862864510956    -2.068713591528    -4.798182137532
C                    -1.594635656143    -2.037838350288    -5.639929536042
C                    -2.990120570319    -3.279847733755    -3.855636492423
N                     0.629177870794    -2.564018491741    -0.913075454033
N                     1.473485015891    -2.828923825512    -2.964809722701
O                    -0.479800637661    -2.123046353623    -4.740684049034
H                     4.461849532803    -2.668582945467    -6.448618599189
H                     2.664891309993    -2.087583553434    -8.079825231977
H                     3.881297740022    -2.964844733066    -4.043310211499
H                     0.334972799218    -1.818217319278    -7.317349008259
H                     1.532661458707    -4.331424342253    -0.069645451913
H                     2.570461891044    -4.659971146807    -2.620891944752
H                     0.189669251629    -1.171123032161    -2.477821789581
H                    -5.169550496442    -3.228675138585    -3.716794235619
H                    -4.349872121289    -2.239970561329    -2.495300650436
H                    -4.377456520582    -4.001376722338    -2.334283767671
H                    -3.688438766920    -4.685871667173    -5.376805333386
H                    -3.048224064005    -5.454670632499    -3.916888474094
H                    -1.937937355400    -4.754614919568    -5.093116981525
H                    -2.910785777842    -1.146964663715    -4.205997981890
H                    -3.716566197283    -2.043761705980    -5.489472686147
H                    -1.555832297809    -2.877376957829    -6.344378017791
H                    -1.538341191793    -1.103868857978    -6.214004750109
H                    -2.153709950437    -3.238008628641    -3.148940536851
