67
1 1 C29H34N3O
C                     2.175032754550     1.038663626204     1.821021334066
C                     2.779682293236     2.092298617633     1.737328100496
C                    -1.414601398577    -8.334632737421     2.842499972687
C                    -2.726034164740    -8.271135414511     3.321979690829
C                     0.457701006695    -0.518635603751     0.972006617919
C                    -0.659513631743    -7.162102294967     2.754687602543
C                    -3.273413907267    -7.038382631651     3.691830115493
C                    -0.239827250041    -1.711306874808     1.046221044079
C                     1.753597680297    -1.111924898372     2.936826143871
C                     1.469554319321    -0.195518734182     1.917209933859
C                     1.053628815931    -2.324021259396     3.009805089413
C                    -1.200667472092    -5.929371880428     3.139852553270
C                    -2.532908221735    -5.850471304312     3.598409154846
C                     0.047053437428    -2.638859050960     2.067646188176
C                     1.350617745935    -3.273980592559     4.079559437817
C                    -0.382916513802    -4.678730426007     3.045540770415
C                    -0.780640787110    -4.655437685643     8.454070954927
C                     3.782188595328     3.912448042284     0.235980824942
C                     2.751782377322     4.576888165688     1.103228939852
C                     0.275112924035    -4.590921992941     7.346548752739
C                    -1.056264070814    -6.093361950643     8.884458247055
C                    -0.393413701586    -6.918104689288     6.624318122801
C                     3.485471106774     3.340034259446     1.622187802086
C                    -0.131704010781    -5.482722739778     6.167496656256
C                    -3.173526427565    -4.522956916802     3.932246916574
C                    -0.800825278125    -9.256918499638     8.503426424349
C                    -2.801322026872    -8.931345517547     6.963581369132
C                     0.905678106972    -5.493017972372     5.024075664774
C                    -1.952894464591    -8.346079576044     8.089878995718
N                    -0.677626198182    -3.819749302694     2.126281266830
N                     0.621220569576    -4.484576254639     3.999170032202
N                    -1.463417392999    -6.940938580093     7.694036026769
O                     2.147237536348    -3.089675970154     4.999808756791
H                    -0.989658487971    -9.281296032117     2.521042470557
H                    -3.330257800439    -9.172634063997     3.382865524205
H                     0.237226873228     0.192677729907     0.181704303801
H                     0.354183328993    -7.200932318541     2.362967966545
H                    -4.307382662674    -6.991110157192     4.027043722093
H                    -1.013236481311    -1.958815407234     0.325527906776
H                     2.517764122485    -0.898435327283     3.676441049529
H                    -0.456043142120    -4.099133898635     9.338413356446
H                    -1.715740644277    -4.187472149216     8.119299671683
H                     3.439809257241     3.334253686350    -0.615641612997
H                     4.744361063341     4.397947325826     0.106042069959
H                     2.999922683837     5.523050414235     1.574026177618
H                     1.705915035291     4.452541030495     0.843268237938
H                     0.416196315119    -3.563477987250     7.004387806087
H                     1.246520814983    -4.920544942854     7.735312971057
H                    -0.165372736181    -6.559003499514     9.309384398619
H                    -1.866725644778    -6.156706172002     9.613714514106
H                    -0.745225406490    -7.532057734849     5.794271970150
H                     0.500026563252    -7.371831665091     7.057950700009
H                     4.239984986215     3.513758914875     2.384834616661
H                    -1.073419265720    -5.104679572371     5.755991274855
H                    -2.532546825451    -3.892947671567     4.558641722706
H                    -3.356861502067    -3.951750420020     3.017291661044
H                    -4.128904291943    -4.662974783113     4.445269415940
H                    -0.175265783511    -9.536424091948     7.652236567612
H                    -0.171078954587    -8.819967595020     9.282212106662
H                    -1.226155297736   -10.177336276885     8.911394901692
H                    -2.209327888182    -9.175710721467     6.079093052289
H                    -3.606715384934    -8.253738459705     6.661757722670
H                    -3.264667840958    -9.854577210488     7.320801508551
H                     0.944402358605    -6.472321896400     4.549235782999
H                     1.897106835591    -5.267092964378     5.416492841004
H                    -2.593619876432    -8.156612702947     8.955900927654
H                    -2.279169760092    -6.478610701873     7.276709976515
