39
0 1 C16H18N4O
C                     3.664997433595    -0.437297256395     5.365968831882
C                     0.000658592789    -3.632250873569     4.313405059172
C                    -0.338971320431    -2.829092225576     5.403190273155
C                     1.069821908458    -3.262883127314     3.487634023371
C                     0.381310085251    -1.658225336352     5.669071579039
C                     1.787733267000    -2.098522011511     3.753086833301
C                     2.598697204766     4.117665340587     7.025005455107
C                     3.580139195229     2.626952521386     5.905993445106
C                     1.445961741857    -1.283973215649     4.843164396525
C                     1.867039034106     3.430934304530     2.617432332318
C                     2.281045857349     2.468141238652     1.464286577151
C                     0.855572856944     2.640145385507     3.479800311491
C                     1.465544267336     1.173267538683     1.689488623240
C                     1.172371334742     1.166353362166     3.191344443385
C                     1.742039280535     0.844253497111     6.222630592648
C                     2.276653882296    -0.004636327922     5.049465587342
N                     4.738254707587    -0.789459504159     5.637173305957
N                     3.733345327112     3.883523485829     6.303252174764
N                     1.758463554710     3.091931672683     7.095619142563
N                     2.404862016129     2.131215817861     6.369677609809
O                     2.402413380881     0.740944770323     3.843655121316
H                    -0.559479781624    -4.540716511458     4.109078022149
H                    -1.164655661130    -3.109163603576     6.051592379414
H                     1.344450682971    -3.884269636280     2.639581399020
H                     0.094265220552    -1.056744516096     6.524955227051
H                     2.615276194482    -1.808701929848     3.112123291715
H                     2.381893523809     5.062160934925     7.507201921423
H                     4.268716340071     2.066042749477     5.292642280413
H                     2.737032843184     3.709054754324     3.217019333173
H                     1.427281151308     4.359725871919     2.243648750410
H                     2.089310835475     2.895504886283     0.476129497221
H                     3.350924382477     2.250270561809     1.518801233329
H                     0.893194911824     2.906069057319     4.536431932920
H                    -0.169787259475     2.825544245840     3.136750484711
H                     0.510429128859     1.217731637934     1.153819477133
H                     1.986013142032     0.266060300076     1.373209072490
H                     0.361866548167     0.483784527125     3.462674401252
H                     0.684315850101     1.055386885503     6.059089984389
H                     1.838131988125     0.282213519100     7.155837625266
