66
0 1 C29H33N3O
C                    -6.535948179797     3.625870626274    -4.595384406773
C                    -7.347069759453     4.500786148543    -4.836854868472
C                     1.310173821828    -2.076126824489    -2.143395048327
C                     0.987262347102    -3.435609802149    -2.185693378716
C                    -5.402906951676     1.530950120774    -5.251276974115
C                     0.290228744055    -1.129834715855    -2.234664289767
C                    -0.343683209567    -3.827739894450    -2.344300954683
C                    -4.486702430462     0.523946928955    -5.010203009024
C                    -4.825248662840     2.603815650169    -3.152195452956
C                    -5.587415672439     2.593563302096    -4.324439335367
C                    -3.898761651620     1.581372432620    -2.903514396125
C                    -1.049564967791    -1.522465198127    -2.376299718517
C                    -1.381068116084    -2.890397177886    -2.459155555609
C                    -3.714304525636     0.530782930123    -3.827701201013
C                    -3.128404889131     1.575038821712    -1.659147734564
C                    -2.100603879326    -0.471543901519    -2.519719723326
C                    -2.787492102182    -0.681765686913     3.368192794846
C                    -9.036333445336     6.205653047824    -3.930354779956
C                    -7.977829499683     6.981585978129    -4.666223396718
C                    -1.879732587779    -0.110725494653     2.273794806620
C                    -3.323329738312    -2.056990755239     2.964255007398
C                    -3.141096103840    -1.524617240132     0.620030529406
C                    -8.297901758754     5.551606541640    -5.095879260105
C                    -2.596569631915    -0.122194124794     0.916940146330
C                    -2.793467931085    -3.367672031553    -2.698313290644
C                    -3.986165258828    -4.425679868279     1.006538648313
C                    -5.874822679562    -2.886439985412     0.299441041946
C                    -1.629083124018     0.354429391104    -0.172874669826
C                    -4.819477768395    -3.181148928945     1.373314722720
N                    -2.787561212725    -0.471821227419    -3.624077583380
N                    -2.261113027140     0.470272346891    -1.506283244780
N                    -4.032385824244    -1.974102828840     1.687561333380
O                    -3.215947013765     2.429211354046    -0.777513196334
H                     2.343106167793    -1.755468094191    -2.039363693015
H                     1.768071566027    -4.187237961841    -2.102770230283
H                    -5.995516073661     1.524404860150    -6.161520488679
H                     0.533168159357    -0.070383310157    -2.206628105430
H                    -0.587604470849    -4.886747204049    -2.386858306733
H                    -4.335344508197    -0.284692629663    -5.719065500765
H                    -4.941700251796     3.394566383764    -2.418575558875
H                    -2.240288120573    -0.763016677695     4.314673253525
H                    -3.635511383077    -0.007081206012     3.532192141537
H                    -8.802676343362     5.838370476741    -2.936630406512
H                   -10.078038602227     6.466193966091    -4.092224458254
H                    -8.288850071438     7.777637379300    -5.336153463803
H                    -7.025140903306     7.141279505108    -4.172412490773
H                    -1.565241454914     0.908549401350     2.526674540652
H                    -0.966521817841    -0.720308203217     2.206113829849
H                    -2.478353173461    -2.772903930050     2.925933396121
H                    -4.021421764574    -2.424017262761     3.724548301037
H                    -3.703490291909    -1.499030595936    -0.315791358314
H                    -2.288406500679    -2.215152033730     0.468985874758
H                    -8.862080840388     5.445950654626    -6.019129876423
H                    -3.442695749588     0.569157570248     0.965487530400
H                    -3.523909925512    -2.808088203106    -2.111154312921
H                    -3.067521061337    -3.230232761121    -3.748577888917
H                    -2.891095988143    -4.427494686815    -2.448187209604
H                    -3.450700957219    -4.286209573378     0.062556154782
H                    -3.249737693345    -4.661531372894     1.781358777153
H                    -4.638796226557    -5.298049873536     0.891248148243
H                    -5.431882028679    -2.750585161509    -0.692472476499
H                    -6.431791859286    -1.979800707414     0.552968822266
H                    -6.579742113153    -3.721201615020     0.224374338846
H                    -0.790617661402    -0.332972980329    -0.244234661194
H                    -1.247230203493     1.343434842647     0.086727604488
H                    -5.364131258726    -3.410333239923     2.297634345796
