39
0 1 C16H18N4O
C                     2.669623392531    -1.307994601282     5.642236785723
C                    -0.326428698683    -4.845013018901     3.585417542110
C                    -0.457009086325    -3.685983924423     2.815324823173
C                     0.389473336948    -4.801833883628     4.785921059227
C                     0.121650395210    -2.487343169297     3.240479140075
C                     0.964194491177    -3.604463540107     5.215614298401
C                    -2.925629008098    -1.178414459111     5.213119889324
C                    -1.541592271364     0.284563902015     4.604225788481
C                     0.833113057385    -2.445070345249     4.443537921648
C                     3.366975279795     0.668165329880     1.745786373780
C                     2.120323080695     1.597405845923     1.646975293442
C                     3.698744995816     0.557264931576     3.253640835658
C                     1.815797174931     2.033359701300     3.097914714272
C                     2.382435882824     0.904654138486     3.960647307126
C                     0.391917865781    -0.520452650122     6.035294208168
C                     1.365650384589    -1.108733467657     4.959002086998
N                     3.661759075445    -1.442741137602     6.232010406877
N                    -2.783251561771    -0.112271432956     4.367303663117
N                    -1.858389135171    -1.456699006758     5.950319836572
N                    -0.970649601172    -0.496378706609     5.555006727473
O                     1.457849554433    -0.210478806766     3.865816623681
H                    -0.777618343845    -5.776074015675     3.252564346334
H                    -1.013082956418    -3.710811077611     1.881947072695
H                     0.499645979002    -5.698571980842     5.389566447113
H                     0.021145651458    -1.588349316636     2.644251393196
H                     1.517677091597    -3.581540096642     6.150885984700
H                    -3.835826357242    -1.758598547816     5.291580248210
H                    -1.023943958827     1.104149173730     4.127039609039
H                     3.136919239323    -0.318800386937     1.336689420742
H                     4.217807243401     1.059274978016     1.181291034678
H                     2.291694072309     2.459788292800     0.997000895854
H                     1.269373708541     1.048290545023     1.234871269737
H                     4.082070515975    -0.422900365949     3.541792961336
H                     4.450492088086     1.299339945044     3.546779408776
H                     2.355803833173     2.953828941031     3.347059118669
H                     0.754012669246     2.213179366924     3.285773597746
H                     2.516225015859     1.194331834436     5.008321699372
H                     0.405341160119    -1.133449969890     6.936311025929
H                     0.713747670538     0.492186749958     6.291327266865
