66
0 1 C29H33N3O
C                    -7.552265118070     4.925273294692    -5.434164925625
C                    -8.492753936030     5.626679372612    -5.758410948234
C                    -0.510874685487    -1.328139340505    -2.249198438197
C                     0.750545510745    -0.748710112508    -2.089371045258
C                    -5.920145818638     3.152320381112    -5.982619834533
C                    -1.614165941248    -0.510943377981    -2.499973010034
C                     0.900065230134     0.637161805501    -2.199853901577
C                    -4.852773259817     2.342375538110    -5.640410806840
C                    -5.873504901305     4.194740705127    -3.791816773589
C                    -6.450110810130     4.097256578979    -5.061769507834
C                    -4.794099709981     3.371501618234    -3.441206586708
C                    -1.469489764993     0.878299832785    -2.574195696650
C                    -0.197766070419     1.472333907288    -2.446163704743
C                    -4.267822882560     2.436816281452    -4.358747121626
C                    -4.216755265565     3.452688991332    -2.098655057245
C                    -2.675107107796     1.713872712225    -2.859871463486
C                    -4.089533094711     1.021131239074     2.843656431272
C                   -10.663727705578     6.801633510192    -5.060334633244
C                    -9.709306747058     7.872021262550    -5.515702878625
C                    -3.182737852313     1.843003530025     1.920316066499
C                    -4.217944115086    -0.419970930871     2.343206378081
C                    -3.790267998896     0.256866586888     0.072813551205
C                    -9.606419753340     6.469788486963    -6.111083656211
C                    -3.658212355150     1.732328508295     0.465972850847
C                    -0.011291969621     2.964638015280    -2.598458122502
C                    -3.944623593641    -2.757825088933     0.242526223153
C                    -6.033195665979    -1.690668953008    -0.718795454908
C                    -2.690468466042     2.481121082487    -0.458852718560
C                    -5.111640681615    -1.784228399331     0.504223594712
N                    -3.185748442008     1.631708922505    -4.052320152025
N                    -3.165079219377     2.542997297471    -1.857081786997
N                    -4.711704384064    -0.441661206223     0.966353296067
O                    -4.599194879572     4.218950514889    -1.214753629679
H                    -0.635619518521    -2.405552502429    -2.182926628588
H                     1.618841878084    -1.372864451123    -1.894495203178
H                    -6.368858570489     3.077315491202    -6.968922296510
H                    -2.598442924532    -0.947179126058    -2.641404313967
H                     1.889010905819     1.079654185077    -2.104343839262
H                    -4.439834115098     1.623876602360    -6.342145424431
H                    -6.253237212952     4.899912095863    -3.059976216712
H                    -3.694332277016     1.021033489460     3.866194429751
H                    -5.087360872291     1.473531938034     2.874382206408
H                   -10.520895939449     6.376048511834    -4.072690701747
H                   -11.694888789584     6.847479047719    -5.397723533895
H                   -10.081714097795     8.656977558606    -6.167145446633
H                    -8.918269622757     8.173534456618    -4.837221164938
H                    -3.164055150347     2.893057452267     2.234553310722
H                    -2.151537635653     1.467200597297     1.994434923255
H                    -3.234133575054    -0.920774765485     2.440394498374
H                    -4.923767023513    -0.971974697950     2.973476221925
H                    -4.171310802030     0.185660025161    -0.948741564107
H                    -2.783595929133    -0.201683114217     0.076214271507
H                    -9.966355429117     6.356513268339    -7.130611604756
H                    -4.644777876410     2.198512627852     0.388000012342
H                    -0.517169089655     3.335919059950    -3.495355046965
H                    -0.420829552646     3.517719965050    -1.745977099830
H                     1.048877402549     3.217882505872    -2.677711707443
H                    -3.341150786318    -2.438757499256    -0.613841780760
H                    -3.281511281693    -2.838850131630     1.109716858834
H                    -4.328873639305    -3.759663474134     0.021920208141
H                    -5.495370519622    -1.372103758883    -1.618237171410
H                    -6.840625959419    -0.976714046091    -0.532643501320
H                    -6.473654163529    -2.669477260245    -0.936427229407
H                    -1.714744484053     1.998331678399    -0.446179453542
H                    -2.578860192674     3.510048768783    -0.112438875209
H                    -5.710747660530    -2.199526309133     1.323990067288
