
  -OEChem-05262117493D

 66 70  0     1  0  0  0  0  0999 V2000
   -6.3030    4.0979   -4.5529 C   0  0  0  0  0  0  0  0  0  0  0  0
   -7.2387    4.8436   -4.7770 C   0  0  0  0  0  0  0  0  0  0  0  0
    0.3061   -2.5266   -1.0758 C   0  0  0  0  0  0  0  0  0  0  0  0
    1.4657   -2.5721   -1.8552 C   0  0  0  0  0  0  0  0  0  0  0  0
   -4.7057    2.3846   -5.3391 C   0  0  0  0  0  0  0  0  0  0  0  0
   -0.6108   -1.4958   -1.2779 C   0  0  0  0  0  0  0  0  0  0  0  0
    1.6811   -1.6014   -2.8360 C   0  0  0  0  0  0  0  0  0  0  0  0
   -3.6480    1.5227   -5.1153 C   0  0  0  0  0  0  0  0  0  0  0  0
   -4.6052    3.1579   -3.0408 C   0  0  0  0  0  0  0  0  0  0  0  0
   -5.2064    3.2185   -4.3018 C   0  0  0  0  0  0  0  0  0  0  0  0
   -3.5299    2.2877   -2.8126 C   0  0  0  0  0  0  0  0  0  0  0  0
   -0.3891   -0.5124   -2.2541 C   0  0  0  0  0  0  0  0  0  0  0  0
    0.7617   -0.5669   -3.0665 C   0  0  0  0  0  0  0  0  0  0  0  0
   -3.0386    1.4571   -3.8427 C   0  0  0  0  0  0  0  0  0  0  0  0
   -2.8779    2.2546   -1.5025 C   0  0  0  0  0  0  0  0  0  0  0  0
   -1.4331    0.5338   -2.4693 C   0  0  0  0  0  0  0  0  0  0  0  0
    1.7714    4.0553   -1.1317 C   0  0  0  0  0  0  0  0  0  0  0  0
   -9.4034    5.9244   -3.9242 C   0  0  0  0  0  0  0  0  0  0  0  0
   -8.4414    7.0414   -4.2260 C   0  0  0  0  0  0  0  0  0  0  0  0
    0.8311    2.8580   -1.3054 C   0  0  0  0  0  0  0  0  0  0  0  0
    2.4761    4.0021    0.2257 C   0  0  0  0  0  0  0  0  0  0  0  0
    0.6627    2.7518    1.2003 C   0  0  0  0  0  0  0  0  0  0  0  0
   -8.3464    5.7347   -5.0100 C   0  0  0  0  0  0  0  0  0  0  0  0
   -0.1289    2.7487   -0.1156 C   0  0  2  0  0  0  0  0  0  0  0  0
    1.0146    0.4263   -4.1758 C   0  0  0  0  0  0  0  0  0  0  0  0
    2.9367    3.0365    3.1951 C   0  0  0  0  0  0  0  0  0  0  0  0
    0.9867    4.5919    3.6486 C   0  0  0  0  0  0  0  0  0  0  0  0
   -0.9892    1.4788   -0.1677 C   0  0  0  0  0  0  0  0  0  0  0  0
    2.0727    4.1879    2.6432 C   0  0  0  0  0  0  0  0  0  0  0  0
   -2.0041    0.5662   -3.6371 N   0  0  0  0  0  0  0  0  0  0  0  0
   -1.7821    1.3688   -1.4109 N   0  0  0  0  0  0  0  0  0  0  0  0
    1.4934    3.9496    1.3077 N   0  0  1  0  0  0  0  0  0  0  0  0
   -3.2077    2.9451   -0.5386 O   0  0  0  0  0  0  0  0  0  0  0  0
    0.1172   -3.2835   -0.3195 H   0  0  0  0  0  0  0  0  0  0  0  0
    2.1967   -3.3623   -1.7044 H   0  0  0  0  0  0  0  0  0  0  0  0
   -5.1738    2.4326   -6.3181 H   0  0  0  0  0  0  0  0  0  0  0  0
   -1.5174   -1.4541   -0.6790 H   0  0  0  0  0  0  0  0  0  0  0  0
    2.5815   -1.6470   -3.4442 H   0  0  0  0  0  0  0  0  0  0  0  0
   -3.2685    0.8767   -5.9014 H   0  0  0  0  0  0  0  0  0  0  0  0
   -4.9550    3.7829   -2.2259 H   0  0  0  0  0  0  0  0  0  0  0  0
    2.5178    4.0735   -1.9345 H   0  0  0  0  0  0  0  0  0  0  0  0
    1.1965    4.9866   -1.1928 H   0  0  0  0  0  0  0  0  0  0  0  0
   -9.2650    5.3651   -3.0050 H   0  0  0  0  0  0  0  0  0  0  0  0
  -10.4336    6.0235   -4.2528 H   0  0  0  0  0  0  0  0  0  0  0  0
   -8.8079    7.9115   -4.7626 H   0  0  0  0  0  0  0  0  0  0  0  0
   -7.6496    7.2409   -3.5117 H   0  0  0  0  0  0  0  0  0  0  0  0
    0.2687    2.9550   -2.2404 H   0  0  0  0  0  0  0  0  0  0  0  0
    1.4230    1.9350   -1.3810 H   0  0  0  0  0  0  0  0  0  0  0  0
    3.1601    3.1301    0.2404 H   0  0  0  0  0  0  0  0  0  0  0  0
    3.0929    4.8971    0.3614 H   0  0  0  0  0  0  0  0  0  0  0  0
   -0.0374    2.7258    2.0400 H   0  0  0  0  0  0  0  0  0  0  0  0
    1.2684    1.8247    1.2513 H   0  0  0  0  0  0  0  0  0  0  0  0
   -8.7055    5.7662   -6.0356 H   0  0  0  0  0  0  0  0  0  0  0  0
   -0.7887    3.6206   -0.1063 H   0  0  0  0  0  0  0  0  0  0  0  0
    0.3549    0.2250   -5.0249 H   0  0  0  0  0  0  0  0  0  0  0  0
    0.8167    1.4533   -3.8609 H   0  0  0  0  0  0  0  0  0  0  0  0
    2.0515    0.3664   -4.5175 H   0  0  0  0  0  0  0  0  0  0  0  0
    2.3304    2.1525    3.4199 H   0  0  0  0  0  0  0  0  0  0  0  0
    3.7180    2.7410    2.4874 H   0  0  0  0  0  0  0  0  0  0  0  0
    3.4285    3.3435    4.1245 H   0  0  0  0  0  0  0  0  0  0  0  0
    0.3369    3.7512    3.9136 H   0  0  0  0  0  0  0  0  0  0  0  0
    0.3636    5.3898    3.2346 H   0  0  0  0  0  0  0  0  0  0  0  0
    1.4454    4.9503    4.5763 H   0  0  0  0  0  0  0  0  0  0  0  0
   -1.6943    1.4739    0.6661 H   0  0  0  0  0  0  0  0  0  0  0  0
   -0.3519    0.6020   -0.0890 H   0  0  0  0  0  0  0  0  0  0  0  0
    2.7270    5.0589    2.5144 H   0  0  0  0  0  0  0  0  0  0  0  0
  1  2  3  0  0  0  0
  1 10  1  0  0  0  0
  2 23  1  0  0  0  0
  3  4  1  0  0  0  0
  3  6  2  0  0  0  0
  3 34  1  0  0  0  0
  4  7  2  0  0  0  0
  4 35  1  0  0  0  0
  5  8  2  0  0  0  0
  5 10  1  0  0  0  0
  5 36  1  0  0  0  0
  6 12  1  0  0  0  0
  6 37  1  0  0  0  0
  7 13  1  0  0  0  0
  7 38  1  0  0  0  0
  8 14  1  0  0  0  0
  8 39  1  0  0  0  0
  9 10  2  0  0  0  0
  9 11  1  0  0  0  0
  9 40  1  0  0  0  0
 11 14  2  0  0  0  0
 11 15  1  0  0  0  0
 12 13  2  0  0  0  0
 12 16  1  0  0  0  0
 13 25  1  0  0  0  0
 14 30  1  0  0  0  0
 15 31  1  0  0  0  0
 15 33  2  0  0  0  0
 16 30  2  0  0  0  0
 16 31  1  0  0  0  0
 17 20  1  0  0  0  0
 17 21  1  0  0  0  0
 17 41  1  0  0  0  0
 17 42  1  0  0  0  0
 18 19  1  0  0  0  0
 18 23  1  0  0  0  0
 18 43  1  0  0  0  0
 18 44  1  0  0  0  0
 19 23  1  0  0  0  0
 19 45  1  0  0  0  0
 19 46  1  0  0  0  0
 20 24  1  0  0  0  0
 20 47  1  0  0  0  0
 20 48  1  0  0  0  0
 21 32  1  0  0  0  0
 21 49  1  0  0  0  0
 21 50  1  0  0  0  0
 22 24  1  0  0  0  0
 22 32  1  0  0  0  0
 22 51  1  0  0  0  0
 22 52  1  0  0  0  0
 23 53  1  0  0  0  0
 24 28  1  0  0  0  0
 24 54  1  0  0  0  0
 25 55  1  0  0  0  0
 25 56  1  0  0  0  0
 25 57  1  0  0  0  0
 26 29  1  0  0  0  0
 26 58  1  0  0  0  0
 26 59  1  0  0  0  0
 26 60  1  0  0  0  0
 27 29  1  0  0  0  0
 27 61  1  0  0  0  0
 27 62  1  0  0  0  0
 27 63  1  0  0  0  0
 28 31  1  0  0  0  0
 28 64  1  0  0  0  0
 28 65  1  0  0  0  0
 29 32  1  0  0  0  0
 29 66  1  0  0  0  0
M  END
$$$$
