
  -OEChem-05262117493D

 66 70  0     1  0  0  0  0  0999 V2000
   -1.0964   -2.1734   -5.2556 C   0  0  0  0  0  0  0  0  0  0  0  0
   -0.6076   -4.1241   -3.8390 C   0  0  0  0  0  0  0  0  0  0  0  0
   -1.0084   -4.3442   -6.2303 C   0  0  0  0  0  0  0  0  0  0  0  0
   -0.7995   -2.7425   -3.9922 C   0  0  0  0  0  0  0  0  0  0  0  0
   -1.2000   -2.9740   -6.3901 C   0  0  0  0  0  0  0  0  0  0  0  0
   -1.0865   -5.3769   -7.2091 C   0  0  0  0  0  0  0  0  0  0  0  0
   -0.7225   -4.9236   -4.9761 C   0  0  0  0  0  0  0  0  0  0  0  0
   -0.8512   -6.5711   -6.5565 C   0  0  0  0  0  0  0  0  0  0  0  0
    0.5364   -0.3480  -11.7990 C   0  0  0  0  0  0  0  0  0  0  0  0
   -1.3877   -5.0043   -8.6342 C   0  0  0  0  0  0  0  0  0  0  0  0
   -0.1827   -2.0001   -8.4980 C   0  0  0  0  0  0  0  0  0  0  0  0
   -1.1572   -2.6503  -10.7338 C   0  0  0  0  0  0  0  0  0  0  0  0
    0.2532   -2.0441   -0.1913 C   0  0  0  0  0  0  0  0  0  0  0  0
   -1.1613   -1.4692   -0.1808 C   0  0  0  0  0  0  0  0  0  0  0  0
   -1.4645   -2.5043   -7.8057 C   0  0  1  0  0  0  0  0  0  0  0  0
   -0.7157   -1.8292   -2.7918 C   0  0  0  0  0  0  0  0  0  0  0  0
   -0.4852   -1.5329   -9.9204 C   0  0  2  0  0  0  0  0  0  0  0  0
   -2.1402   -3.6511   -8.6101 C   0  0  1  0  0  0  0  0  0  0  0  0
   -0.8075   -7.9750   -7.0660 C   0  0  0  0  0  0  0  0  0  0  0  0
    1.3186    2.2967  -13.5337 C   0  0  0  0  0  0  0  0  0  0  0  0
    3.7806   -1.2389  -12.1433 C   0  0  0  0  0  0  0  0  0  0  0  0
   -3.2017   -4.0731  -10.8849 C   0  0  0  0  0  0  0  0  0  0  0  0
    1.5323    0.7906  -13.6980 C   0  0  0  0  0  0  0  0  0  0  0  0
    3.0002    0.0352  -11.7985 C   0  0  0  0  0  0  0  0  0  0  0  0
   -0.6236   -6.2896   -5.2073 N   0  0  0  0  0  0  0  0  0  0  0  0
    0.7006   -1.0444  -10.5927 N   0  0  0  0  0  0  0  0  0  0  0  0
    1.6703    0.0892  -12.4119 N   0  0  0  0  0  0  0  0  0  0  0  0
   -2.4081   -3.1297  -10.0285 N   0  3  2  0  0  0  0  0  0  0  0  0
   -0.6057   -0.1515  -12.2423 O   0  0  0  0  0  0  0  0  0  0  0  0
    0.9214   -1.9459   -1.9026 S   0  0  0  0  0  0  0  0  0  0  0  0
   -2.0612   -2.1979   -1.5919 S   0  0  0  0  0  0  0  0  0  0  0  0
   -1.2467   -1.0978   -5.3238 H   0  0  0  0  0  0  0  0  0  0  0  0
   -0.3786   -4.5297   -2.8583 H   0  0  0  0  0  0  0  0  0  0  0  0
   -0.4644   -4.9188   -9.2195 H   0  0  0  0  0  0  0  0  0  0  0  0
   -2.0066   -5.7634   -9.1217 H   0  0  0  0  0  0  0  0  0  0  0  0
    0.2324   -1.1707   -7.9197 H   0  0  0  0  0  0  0  0  0  0  0  0
    0.5718   -2.7963   -8.5002 H   0  0  0  0  0  0  0  0  0  0  0  0
   -1.4534   -2.2654  -11.7100 H   0  0  0  0  0  0  0  0  0  0  0  0
   -0.5011   -3.5125  -10.8595 H   0  0  0  0  0  0  0  0  0  0  0  0
    0.9167   -1.4652    0.4574 H   0  0  0  0  0  0  0  0  0  0  0  0
    0.2492   -3.0853    0.1380 H   0  0  0  0  0  0  0  0  0  0  0  0
   -1.6971   -1.7427    0.7329 H   0  0  0  0  0  0  0  0  0  0  0  0
   -1.1457   -0.3795   -0.2677 H   0  0  0  0  0  0  0  0  0  0  0  0
   -2.1786   -1.6686   -7.7744 H   0  0  0  0  0  0  0  0  0  0  0  0
   -0.8236   -0.7935   -3.1190 H   0  0  0  0  0  0  0  0  0  0  0  0
   -1.1892   -0.6936   -9.8793 H   0  0  0  0  0  0  0  0  0  0  0  0
   -3.1334   -3.8235   -8.1852 H   0  0  0  0  0  0  0  0  0  0  0  0
    0.1950   -8.4075   -6.9687 H   0  0  0  0  0  0  0  0  0  0  0  0
   -1.5029   -8.6228   -6.5204 H   0  0  0  0  0  0  0  0  0  0  0  0
   -1.0806   -8.0069   -8.1233 H   0  0  0  0  0  0  0  0  0  0  0  0
    0.3900    2.4899  -12.9908 H   0  0  0  0  0  0  0  0  0  0  0  0
    2.1461    2.7629  -12.9884 H   0  0  0  0  0  0  0  0  0  0  0  0
    1.2513    2.7768  -14.5153 H   0  0  0  0  0  0  0  0  0  0  0  0
    3.2718   -2.1399  -11.7813 H   0  0  0  0  0  0  0  0  0  0  0  0
    3.8977   -1.3416  -13.2261 H   0  0  0  0  0  0  0  0  0  0  0  0
    4.7780   -1.2107  -11.6932 H   0  0  0  0  0  0  0  0  0  0  0  0
   -2.5688   -4.9097  -11.1740 H   0  0  0  0  0  0  0  0  0  0  0  0
   -4.0635   -4.4299  -10.3197 H   0  0  0  0  0  0  0  0  0  0  0  0
   -3.5301   -3.5368  -11.7756 H   0  0  0  0  0  0  0  0  0  0  0  0
    2.4385    0.5871  -14.2775 H   0  0  0  0  0  0  0  0  0  0  0  0
    0.6910    0.3478  -14.2326 H   0  0  0  0  0  0  0  0  0  0  0  0
    3.5559    0.9090  -12.1496 H   0  0  0  0  0  0  0  0  0  0  0  0
    2.9061    0.1592  -10.7155 H   0  0  0  0  0  0  0  0  0  0  0  0
   -0.4377   -6.9917   -4.5035 H   0  0  0  0  0  0  0  0  0  0  0  0
    1.5701   -1.5260  -10.4062 H   0  0  0  0  0  0  0  0  0  0  0  0
   -2.9900   -2.2944   -9.9019 H   0  0  0  0  0  0  0  0  0  0  0  0
  1  4  2  0  0  0  0
  1  5  1  0  0  0  0
  1 32  1  0  0  0  0
  2  4  1  0  0  0  0
  2  7  2  0  0  0  0
  2 33  1  0  0  0  0
  3  5  2  0  0  0  0
  3  6  1  0  0  0  0
  3  7  1  0  0  0  0
  4 16  1  0  0  0  0
  5 15  1  0  0  0  0
  6  8  2  0  0  0  0
  6 10  1  0  0  0  0
  7 25  1  0  0  0  0
  8 19  1  0  0  0  0
  8 25  1  0  0  0  0
  9 26  1  0  0  0  0
  9 27  1  0  0  0  0
  9 29  2  0  0  0  0
 10 18  1  0  0  0  0
 10 34  1  0  0  0  0
 10 35  1  0  0  0  0
 11 15  1  0  0  0  0
 11 17  1  0  0  0  0
 11 36  1  0  0  0  0
 11 37  1  0  0  0  0
 12 17  1  0  0  0  0
 12 28  1  0  0  0  0
 12 38  1  0  0  0  0
 12 39  1  0  0  0  0
 13 14  1  0  0  0  0
 13 30  1  0  0  0  0
 13 40  1  0  0  0  0
 13 41  1  0  0  0  0
 14 31  1  0  0  0  0
 14 42  1  0  0  0  0
 14 43  1  0  0  0  0
 15 18  1  0  0  0  0
 15 44  1  0  0  0  0
 16 30  1  0  0  0  0
 16 31  1  0  0  0  0
 16 45  1  0  0  0  0
 17 26  1  0  0  0  0
 17 46  1  0  0  0  0
 18 28  1  0  0  0  0
 18 47  1  0  0  0  0
 19 48  1  0  0  0  0
 19 49  1  0  0  0  0
 19 50  1  0  0  0  0
 20 23  1  0  0  0  0
 20 51  1  0  0  0  0
 20 52  1  0  0  0  0
 20 53  1  0  0  0  0
 21 24  1  0  0  0  0
 21 54  1  0  0  0  0
 21 55  1  0  0  0  0
 21 56  1  0  0  0  0
 22 28  1  0  0  0  0
 22 57  1  0  0  0  0
 22 58  1  0  0  0  0
 22 59  1  0  0  0  0
 23 27  1  0  0  0  0
 23 60  1  0  0  0  0
 23 61  1  0  0  0  0
 24 27  1  0  0  0  0
 24 62  1  0  0  0  0
 24 63  1  0  0  0  0
 25 64  1  0  0  0  0
 26 65  1  0  0  0  0
 28 66  1  0  0  0  0
M  CHG  1  28   1
M  END
$$$$
