32
0 1 C13ClFH13N3O
C                     2.840603285145    -0.362155605926     0.240601383383
C                     2.147729586485    -2.497226924275     1.120295926208
C                     1.722806329521     0.242526979876     0.820212246166
C                     1.031680550814    -1.906736379129     1.711109592252
C                     0.775760582579    -2.227691432789    -2.876646471024
C                     2.786291975894    -1.758074768213    -3.280807481295
C                     3.070594665454    -1.735579243900     0.387949703464
C                     0.827933417929    -0.534875216246     1.554930436964
C                     6.317514908203    -0.872227116827     0.344865412623
C                     6.830275718855    -1.934567523172    -0.626798901726
C                     5.398047930109    -1.506139975342    -0.646503984647
C                     3.803408368638    -3.276491612508    -1.502587513475
C                     4.253138008585    -2.446605557131    -0.258820150397
N                     1.560679852106    -1.450181131055    -3.682017328471
N                     1.437719843843    -2.990655420309    -2.016390988444
N                     2.740499885265    -2.679753087910    -2.287711415829
O                     4.791648756936    -3.435243278138     0.635725613260
F                     5.055957856160    -0.697594038756    -1.736583839208
Cl                   -0.577150051167     0.220270823583     2.287776377623
H                     3.520918439114     0.250801178867    -0.338187307351
H                     2.288629749960    -3.569440740184     1.215663438766
H                     1.548308853110     1.306907115655     0.699300100791
H                     0.320483577933    -2.504722894093     2.271882132634
H                    -0.305380585168    -2.237174510659    -2.928171148959
H                     3.710671607665    -1.347733724845    -3.661340014720
H                     6.211568058391    -1.134755095520     1.393185628612
H                     6.599190608628     0.158614539939     0.156274089680
H                     7.443229704300    -1.589406528034    -1.453432628675
H                     7.059559975532    -2.919554762817    -0.237191973991
H                     4.664083017778    -3.466793606620    -2.147759633167
H                     3.427456440774    -4.230496087396    -1.134622086828
H                     4.719377892836    -3.087442498360     1.539159172759
