
  -OEChem-05262117483D

 66 70  0     0  0  0  0  0  0999 V2000
    5.6219    0.5884  -10.0223 C   0  0  0  0  0  0  0  0  0  0  0  0
   -1.0249   -1.4528   -6.5932 C   0  0  0  0  0  0  0  0  0  0  0  0
    4.4178    0.1431  -10.5751 C   0  0  0  0  0  0  0  0  0  0  0  0
   -1.0750   -1.2809   -5.2083 C   0  0  0  0  0  0  0  0  0  0  0  0
    1.2455   -0.6753   -6.6035 C   0  0  0  0  0  0  0  0  0  0  0  0
    5.9770    0.1420   -8.7515 C   0  0  0  0  0  0  0  0  0  0  0  0
    4.0935   -1.1815   -8.6075 C   0  0  0  0  0  0  0  0  0  0  0  0
    0.1402   -1.1410   -7.3111 C   0  0  0  0  0  0  0  0  0  0  0  0
    3.6199   -0.7574   -9.8618 C   0  0  0  0  0  0  0  0  0  0  0  0
    0.0749   -0.8961   -4.4904 C   0  0  0  0  0  0  0  0  0  0  0  0
    1.2363   -0.6233   -5.2201 C   0  0  0  0  0  0  0  0  0  0  0  0
    1.1160   -0.0805   -2.4391 C   0  0  0  0  0  0  0  0  0  0  0  0
    0.3861   -1.5391   -8.7398 C   0  0  0  0  0  0  0  0  0  0  0  0
    3.5787   -0.9985   -4.8713 C   0  0  0  0  0  0  0  0  0  0  0  0
    2.2428    0.4824   -3.3229 C   0  0  0  0  0  0  0  0  0  0  0  0
    8.6530   -4.3767   -4.5224 C   0  0  0  0  0  0  0  0  0  0  0  0
    7.8784   -3.7979   -3.3320 C   0  0  0  0  0  0  0  0  0  0  0  0
    7.8003   -4.3691   -5.7971 C   0  0  0  0  0  0  0  0  0  0  0  0
   -0.6627   -2.2749   -1.1536 C   0  0  0  0  0  0  0  0  0  0  0  0
   -1.3363   -2.7890   -2.4005 C   0  0  0  0  0  0  0  0  0  0  0  0
    7.3419   -2.3887   -3.6395 C   0  0  0  0  0  0  0  0  0  0  0  0
    7.2610   -2.9638   -6.1087 C   0  0  0  0  0  0  0  0  0  0  0  0
   -0.9727   -1.3244   -2.2795 C   0  0  0  0  0  0  0  0  0  0  0  0
    6.4878   -2.4161   -4.9078 C   0  0  0  0  0  0  0  0  0  0  0  0
    2.2443   -1.1748  -10.3641 C   0  0  0  0  0  0  0  0  0  0  0  0
    4.9188   -0.4514   -4.3639 C   0  0  0  0  0  0  0  0  0  0  0  0
    5.2285   -0.7268   -8.0449 N   0  0  0  0  0  0  0  0  0  0  0  0
    0.1250   -0.8135   -3.0800 N   0  0  0  0  0  0  0  0  0  0  0  0
    2.4409   -0.3276   -4.5214 N   0  0  0  0  0  0  0  0  0  0  0  0
    1.2204   -0.6854   -9.4388 N   0  0  0  0  0  0  0  0  0  0  0  0
    5.9915   -1.0128   -5.2535 N   0  3  0  0  0  0  0  0  0  0  0  0
    1.1260    0.1456   -1.2411 O   0  0  0  0  0  0  0  0  0  0  0  0
   -0.0072   -2.6069   -9.1937 O   0  0  0  0  0  0  0  0  0  0  0  0
    3.6029   -1.9453   -5.6559 O   0  0  0  0  0  0  0  0  0  0  0  0
    6.2638    1.2826  -10.5554 H   0  0  0  0  0  0  0  0  0  0  0  0
   -1.8916   -1.8394   -7.1209 H   0  0  0  0  0  0  0  0  0  0  0  0
    4.0980    0.5008  -11.5510 H   0  0  0  0  0  0  0  0  0  0  0  0
   -1.9926   -1.4959   -4.6748 H   0  0  0  0  0  0  0  0  0  0  0  0
    2.1696   -0.4445   -7.1128 H   0  0  0  0  0  0  0  0  0  0  0  0
    6.8944    0.4914   -8.2812 H   0  0  0  0  0  0  0  0  0  0  0  0
    3.5356   -1.9023   -8.0165 H   0  0  0  0  0  0  0  0  0  0  0  0
    1.9820    1.5117   -3.5980 H   0  0  0  0  0  0  0  0  0  0  0  0
    3.1363    0.5088   -2.7011 H   0  0  0  0  0  0  0  0  0  0  0  0
    8.9781   -5.3965   -4.2946 H   0  0  0  0  0  0  0  0  0  0  0  0
    9.5641   -3.7865   -4.6870 H   0  0  0  0  0  0  0  0  0  0  0  0
    7.0361   -4.4561   -3.0839 H   0  0  0  0  0  0  0  0  0  0  0  0
    8.5132   -3.7526   -2.4422 H   0  0  0  0  0  0  0  0  0  0  0  0
    8.3811   -4.7277   -6.6520 H   0  0  0  0  0  0  0  0  0  0  0  0
    6.9552   -5.0592   -5.6809 H   0  0  0  0  0  0  0  0  0  0  0  0
   -1.2424   -2.1621   -0.2438 H   0  0  0  0  0  0  0  0  0  0  0  0
    0.3781   -2.5342   -0.9967 H   0  0  0  0  0  0  0  0  0  0  0  0
   -0.7450   -3.3937   -3.0811 H   0  0  0  0  0  0  0  0  0  0  0  0
   -2.3910   -3.0442   -2.3654 H   0  0  0  0  0  0  0  0  0  0  0  0
    6.7720   -2.0183   -2.7800 H   0  0  0  0  0  0  0  0  0  0  0  0
    8.1898   -1.7041   -3.7872 H   0  0  0  0  0  0  0  0  0  0  0  0
    8.1026   -2.2932   -6.3365 H   0  0  0  0  0  0  0  0  0  0  0  0
    6.6130   -2.9850   -6.9898 H   0  0  0  0  0  0  0  0  0  0  0  0
   -1.7739   -0.6062   -2.1244 H   0  0  0  0  0  0  0  0  0  0  0  0
    5.5821   -3.0049   -4.7583 H   0  0  0  0  0  0  0  0  0  0  0  0
    2.0845   -0.7853  -11.3747 H   0  0  0  0  0  0  0  0  0  0  0  0
    2.1365   -2.2615  -10.4135 H   0  0  0  0  0  0  0  0  0  0  0  0
    5.1279   -0.7359   -3.3315 H   0  0  0  0  0  0  0  0  0  0  0  0
    4.9500    0.6381   -4.4322 H   0  0  0  0  0  0  0  0  0  0  0  0
    1.3940    0.2217   -9.0260 H   0  0  0  0  0  0  0  0  0  0  0  0
    6.8018   -0.3862   -5.2182 H   0  0  0  0  0  0  0  0  0  0  0  0
    5.6470   -1.0051   -6.2666 H   0  0  0  0  0  0  0  0  0  0  0  0
  1  3  1  0  0  0  0
  1  6  2  0  0  0  0
  1 35  1  0  0  0  0
  2  4  2  0  0  0  0
  2  8  1  0  0  0  0
  2 36  1  0  0  0  0
  3  9  2  0  0  0  0
  3 37  1  0  0  0  0
  4 10  1  0  0  0  0
  4 38  1  0  0  0  0
  5  8  2  0  0  0  0
  5 11  1  0  0  0  0
  5 39  1  0  0  0  0
  6 27  1  0  0  0  0
  6 40  1  0  0  0  0
  7  9  1  0  0  0  0
  7 27  2  0  0  0  0
  7 41  1  0  0  0  0
  8 13  1  0  0  0  0
  9 25  1  0  0  0  0
 10 11  2  0  0  0  0
 10 28  1  0  0  0  0
 11 29  1  0  0  0  0
 12 15  1  0  0  0  0
 12 28  1  0  0  0  0
 12 32  2  0  0  0  0
 13 30  1  0  0  0  0
 13 33  2  0  0  0  0
 14 26  1  0  0  0  0
 14 29  1  0  0  0  0
 14 34  2  0  0  0  0
 15 29  1  0  0  0  0
 15 42  1  0  0  0  0
 15 43  1  0  0  0  0
 16 17  1  0  0  0  0
 16 18  1  0  0  0  0
 16 44  1  0  0  0  0
 16 45  1  0  0  0  0
 17 21  1  0  0  0  0
 17 46  1  0  0  0  0
 17 47  1  0  0  0  0
 18 22  1  0  0  0  0
 18 48  1  0  0  0  0
 18 49  1  0  0  0  0
 19 20  1  0  0  0  0
 19 23  1  0  0  0  0
 19 50  1  0  0  0  0
 19 51  1  0  0  0  0
 20 23  1  0  0  0  0
 20 52  1  0  0  0  0
 20 53  1  0  0  0  0
 21 24  1  0  0  0  0
 21 54  1  0  0  0  0
 21 55  1  0  0  0  0
 22 24  1  0  0  0  0
 22 56  1  0  0  0  0
 22 57  1  0  0  0  0
 23 28  1  0  0  0  0
 23 58  1  0  0  0  0
 24 31  1  0  0  0  0
 24 59  1  0  0  0  0
 25 30  1  0  0  0  0
 25 60  1  0  0  0  0
 25 61  1  0  0  0  0
 26 31  1  0  0  0  0
 26 62  1  0  0  0  0
 26 63  1  0  0  0  0
 30 64  1  0  0  0  0
 31 65  1  0  0  0  0
 31 66  1  0  0  0  0
M  CHG  1  31   1
M  END
$$$$
