
  -OEChem-05262117483D

 65 69  0     0  0  0  0  0  0999 V2000
    1.2602    2.2230    4.9492 C   0  0  0  0  0  0  0  0  0  0  0  0
    6.4427    0.0369    1.3542 C   0  0  0  0  0  0  0  0  0  0  0  0
    2.6360    2.3046    4.7419 C   0  0  0  0  0  0  0  0  0  0  0  0
    6.7131   -0.4572    0.0800 C   0  0  0  0  0  0  0  0  0  0  0  0
    5.4887    2.0380    0.3900 C   0  0  0  0  0  0  0  0  0  0  0  0
    0.7680    1.2585    5.8371 C   0  0  0  0  0  0  0  0  0  0  0  0
    2.8735    0.4941    6.2951 C   0  0  0  0  0  0  0  0  0  0  0  0
    5.8189    1.2823    1.5203 C   0  0  0  0  0  0  0  0  0  0  0  0
    3.4754    1.4157    5.4299 C   0  0  0  0  0  0  0  0  0  0  0  0
    6.3440    0.2793   -1.0535 C   0  0  0  0  0  0  0  0  0  0  0  0
    5.7369    1.5403   -0.8859 C   0  0  0  0  0  0  0  0  0  0  0  0
    6.7135    0.6480   -3.4314 C   0  0  0  0  0  0  0  0  0  0  0  0
    5.5138    1.8772    2.8613 C   0  0  0  0  0  0  0  0  0  0  0  0
    4.2043    2.8741   -2.2532 C   0  0  0  0  0  0  0  0  0  0  0  0
    6.4492    2.1158   -3.1106 C   0  0  0  0  0  0  0  0  0  0  0  0
    0.6808    6.2122   -6.8232 C   0  0  0  0  0  0  0  0  0  0  0  0
    2.0555    5.5847   -7.0920 C   0  0  0  0  0  0  0  0  0  0  0  0
   -0.1177    5.3800   -5.8100 C   0  0  0  0  0  0  0  0  0  0  0  0
    5.9545   -2.3699   -3.5629 C   0  0  0  0  0  0  0  0  0  0  0  0
    5.8014   -2.6327   -2.0844 C   0  0  0  0  0  0  0  0  0  0  0  0
    2.8393    5.3704   -5.7894 C   0  0  0  0  0  0  0  0  0  0  0  0
    0.6756    5.1662   -4.5139 C   0  0  0  0  0  0  0  0  0  0  0  0
    6.8162   -1.6255   -2.5776 C   0  0  0  0  0  0  0  0  0  0  0  0
    2.0445    4.5284   -4.7800 C   0  0  0  0  0  0  0  0  0  0  0  0
    4.9764    1.4324    5.2320 C   0  0  0  0  0  0  0  0  0  0  0  0
    3.9717    3.5898   -3.5852 C   0  0  0  0  0  0  0  0  0  0  0  0
    1.5519    0.4031    6.5060 N   0  0  0  0  0  0  0  0  0  0  0  0
    6.5516   -0.2198   -2.3627 N   0  0  0  0  0  0  0  0  0  0  0  0
    5.4386    2.2698   -2.0689 N   0  0  0  0  0  0  0  0  0  0  0  0
    5.3874    0.9854    3.8996 N   0  0  0  0  0  0  0  0  0  0  0  0
    2.7705    4.3992   -3.5140 N   0  0  0  0  0  0  0  0  0  0  0  0
    7.0545    0.2863   -4.5487 O   0  0  0  0  0  0  0  0  0  0  0  0
    5.3958    3.0945    3.0196 O   0  0  0  0  0  0  0  0  0  0  0  0
    3.3306    2.8309   -1.3935 O   0  0  0  0  0  0  0  0  0  0  0  0
    0.5754    2.8933    4.4370 H   0  0  0  0  0  0  0  0  0  0  0  0
    6.7644   -0.5398    2.2166 H   0  0  0  0  0  0  0  0  0  0  0  0
    3.0633    3.0374    4.0626 H   0  0  0  0  0  0  0  0  0  0  0  0
    7.2072   -1.4143   -0.0368 H   0  0  0  0  0  0  0  0  0  0  0  0
    5.0263    3.0083    0.5190 H   0  0  0  0  0  0  0  0  0  0  0  0
   -0.3024    1.1712    6.0184 H   0  0  0  0  0  0  0  0  0  0  0  0
    3.4925   -0.2100    6.8531 H   0  0  0  0  0  0  0  0  0  0  0  0
    7.3921    2.5776   -2.7883 H   0  0  0  0  0  0  0  0  0  0  0  0
    6.1468    2.5889   -4.0390 H   0  0  0  0  0  0  0  0  0  0  0  0
    0.1190    6.3126   -7.7594 H   0  0  0  0  0  0  0  0  0  0  0  0
    0.8190    7.2276   -6.4271 H   0  0  0  0  0  0  0  0  0  0  0  0
    1.9189    4.6187   -7.5978 H   0  0  0  0  0  0  0  0  0  0  0  0
    2.6352    6.2148   -7.7764 H   0  0  0  0  0  0  0  0  0  0  0  0
   -1.0734    5.8675   -5.5850 H   0  0  0  0  0  0  0  0  0  0  0  0
   -0.3610    4.4051   -6.2545 H   0  0  0  0  0  0  0  0  0  0  0  0
    6.4454   -3.1098   -4.1864 H   0  0  0  0  0  0  0  0  0  0  0  0
    5.1755   -1.8024   -4.0595 H   0  0  0  0  0  0  0  0  0  0  0  0
    4.9177   -2.2413   -1.5902 H   0  0  0  0  0  0  0  0  0  0  0  0
    6.1806   -3.5624   -1.6706 H   0  0  0  0  0  0  0  0  0  0  0  0
    3.8007    4.8909   -6.0100 H   0  0  0  0  0  0  0  0  0  0  0  0
    3.0662    6.3369   -5.3206 H   0  0  0  0  0  0  0  0  0  0  0  0
    0.8370    6.1283   -4.0109 H   0  0  0  0  0  0  0  0  0  0  0  0
    0.1046    4.5363   -3.8195 H   0  0  0  0  0  0  0  0  0  0  0  0
    7.8688   -1.8963   -2.5344 H   0  0  0  0  0  0  0  0  0  0  0  0
    1.8728    3.5323   -5.2380 H   0  0  0  0  0  0  0  0  0  0  0  0
    5.3680    2.4436    5.3550 H   0  0  0  0  0  0  0  0  0  0  0  0
    5.4596    0.7889    5.9736 H   0  0  0  0  0  0  0  0  0  0  0  0
    3.9143    2.8102   -4.3698 H   0  0  0  0  0  0  0  0  0  0  0  0
    4.8406    4.2130   -3.8281 H   0  0  0  0  0  0  0  0  0  0  0  0
    5.1908    0.0211    3.6634 H   0  0  0  0  0  0  0  0  0  0  0  0
    2.1681    4.0076   -2.7915 H   0  0  0  0  0  0  0  0  0  0  0  0
  1  3  1  0  0  0  0
  1  6  2  0  0  0  0
  1 35  1  0  0  0  0
  2  4  2  0  0  0  0
  2  8  1  0  0  0  0
  2 36  1  0  0  0  0
  3  9  2  0  0  0  0
  3 37  1  0  0  0  0
  4 10  1  0  0  0  0
  4 38  1  0  0  0  0
  5  8  2  0  0  0  0
  5 11  1  0  0  0  0
  5 39  1  0  0  0  0
  6 27  1  0  0  0  0
  6 40  1  0  0  0  0
  7  9  1  0  0  0  0
  7 27  2  0  0  0  0
  7 41  1  0  0  0  0
  8 13  1  0  0  0  0
  9 25  1  0  0  0  0
 10 11  2  0  0  0  0
 10 28  1  0  0  0  0
 11 29  1  0  0  0  0
 12 15  1  0  0  0  0
 12 28  1  0  0  0  0
 12 32  2  0  0  0  0
 13 30  1  0  0  0  0
 13 33  2  0  0  0  0
 14 26  1  0  0  0  0
 14 29  1  0  0  0  0
 14 34  2  0  0  0  0
 15 29  1  0  0  0  0
 15 42  1  0  0  0  0
 15 43  1  0  0  0  0
 16 17  1  0  0  0  0
 16 18  1  0  0  0  0
 16 44  1  0  0  0  0
 16 45  1  0  0  0  0
 17 21  1  0  0  0  0
 17 46  1  0  0  0  0
 17 47  1  0  0  0  0
 18 22  1  0  0  0  0
 18 48  1  0  0  0  0
 18 49  1  0  0  0  0
 19 20  1  0  0  0  0
 19 23  1  0  0  0  0
 19 50  1  0  0  0  0
 19 51  1  0  0  0  0
 20 23  1  0  0  0  0
 20 52  1  0  0  0  0
 20 53  1  0  0  0  0
 21 24  1  0  0  0  0
 21 54  1  0  0  0  0
 21 55  1  0  0  0  0
 22 24  1  0  0  0  0
 22 56  1  0  0  0  0
 22 57  1  0  0  0  0
 23 28  1  0  0  0  0
 23 58  1  0  0  0  0
 24 31  1  0  0  0  0
 24 59  1  0  0  0  0
 25 30  1  0  0  0  0
 25 60  1  0  0  0  0
 25 61  1  0  0  0  0
 26 31  1  0  0  0  0
 26 62  1  0  0  0  0
 26 63  1  0  0  0  0
 30 64  1  0  0  0  0
 31 65  1  0  0  0  0
M  END
$$$$
