53
0 1 C26FH22NO3
C                    -0.902417893803     1.399797348602     1.594499154882
C                    -0.831516947790     0.240089314471     0.784573198215
C                    -5.245276744850     3.783235911113     4.858457522661
C                    -1.968659537423     1.598132930119     2.460534252747
C                    -4.828967222850     2.847910074110     3.903409261600
C                    -5.048387420526    -1.225909738343    -0.929338704874
C                    -6.684639377010    -2.646062004773     0.139726707719
C                    -1.813629553949    -0.742763425393     0.831358702637
C                    -5.490741563139     3.399247432452     6.173416492918
C                    -5.981826798982    -0.861692643216    -1.901181859953
C                    -7.632472994734    -2.296845734166    -0.827757582925
C                    -4.887628749781     1.117139733404     5.608395098751
C                    -2.987493163133     0.625634695987     2.513172129030
C                    -4.653144967168     1.506495942268     4.274393030388
C                    -4.198185675227     0.516784012690     3.276220964824
C                    -5.386925858123    -2.121362760452     0.097216044973
C                    -2.890505876176    -0.547276256632     1.713661168343
C                    -5.315796212304     2.057412059675     6.554425539838
C                    -7.260123424857    -1.409863807304    -1.830787172486
C                    -4.787080031403    -0.696745746520     2.923493465838
C                    -6.044779434497    -1.311767057991     3.405844875241
C                    -6.424275563772    -0.961730022947    10.276189543231
C                    -7.310408452258     0.254316963461    10.114152946565
C                    -5.848194482321     0.332689590058     9.740381186475
C                    -4.370345691230    -2.498258698125     1.157741923830
C                    -5.457623785299     0.403078832291     8.292194677789
N                    -3.976608551241    -1.354025943511     1.991509001913
O                    -6.298268500213    -2.500247219081     3.312319010504
O                    -6.955914025275    -0.482624792933     3.974381138526
O                    -5.583856209557     1.768231409295     7.858766172480
F                    -8.173679969767    -1.061775403837    -2.774895456732
H                    -0.108493467513     2.138978418908     1.533692010157
H                     0.013996435591     0.111484091352     0.114123616695
H                    -5.388792821781     4.820996184192     4.569302103451
H                    -2.023638959362     2.483606146294     3.087424003617
H                    -4.660222267852     3.147392391878     2.873509423851
H                    -4.049927985277    -0.798899083662    -0.969052248011
H                    -6.964549668176    -3.315376458841     0.947301731126
H                    -1.733609614571    -1.628927794632     0.209279892293
H                    -5.820348801780     4.113789752532     6.921823254590
H                    -5.734304089898    -0.170630709739    -2.701168355157
H                    -8.642758503454    -2.693608963451    -0.804410279099
H                    -4.723386145618     0.082404015006     5.883374299705
H                    -6.140475052801    -1.265246216258    11.279190049212
H                    -6.560448544890    -1.785771321324     9.580921539947
H                    -8.034902050328     0.251374373038     9.304649649028
H                    -7.635471662067     0.777805968917    11.007982198987
H                    -5.201644760888     0.894331864937    10.409943591818
H                    -4.766235190731    -3.276840742465     1.805263045286
H                    -3.455207800770    -2.877093054256     0.698433340271
H                    -6.111901563091    -0.237131192697     7.685778200522
H                    -4.420387434701     0.071037262062     8.150738793574
H                    -6.621506239148     0.433819990609     4.006006414377
