39
0 1 C15H19NO4
C                     1.359986373357    -2.328122324569    -1.497520779269
C                     1.805984827126    -3.623153322464    -1.792642586861
C                     2.193790970105    -2.586590931962     0.759081684206
C                     1.547158734069    -1.809416303207    -0.218197718942
C                     2.445948033279    -4.401209475783    -0.834130310612
C                     2.654054649737    -3.872508228264     0.462248395803
C                     0.950485393520     1.537323134217    -1.099033543550
C                     3.547295314222    -6.374445554687     4.062003428217
C                     4.182553034284    -5.304129167168     4.923874398861
C                     2.270181378246     0.521443576784     0.534388685427
C                     4.322001675254    -5.248367245596     3.417267996142
C                     1.087202188890    -0.412527455433     0.152191154118
C                     0.000041191154    -0.425659903392     1.232305781578
C                     2.280392170033    -6.754669593673    -0.542445175621
C                     3.583369086544    -4.182808510458     2.658403248134
N                     1.818638909470     1.775789996652    -0.048211113120
O                     0.584758762190     2.313547508870    -1.952994844216
O                     0.521981638880     0.238215296881    -1.019849339032
O                     2.920696171601    -5.643207757112    -1.188060692899
O                     3.311056510098    -4.683366933849     1.344090583171
H                     0.868627462936    -1.730745993263    -2.256376885813
H                     1.669092096208    -4.048099281131    -2.783086802446
H                     2.349155229531    -2.176205792257     1.750859320526
H                     3.991837329429    -7.364863210868     4.060045160322
H                     2.465999404475    -6.365347051063     3.955311036508
H                     3.526232272619    -4.582443954889     5.403121845250
H                     5.061912793147    -5.563107668553     5.505404730265
H                     2.389248182144     0.594620699191     1.619141350051
H                     3.209614625257     0.168046319370     0.092500954316
H                     5.296013959470    -5.499397177187     3.005333563150
H                    -0.287537602767     0.597821956727     1.491790557384
H                     0.354713993192    -0.931100833235     2.134878396213
H                    -0.878921653050    -0.957785641854     0.860526675317
H                     2.720472623383    -7.651682730743    -0.982700712544
H                     1.201248953178    -6.742391856869    -0.741342748627
H                     2.460708701306    -6.745585732383     0.536025054824
H                     4.185333040302    -3.266726091594     2.583848222354
H                     2.640442571429    -3.935575801069     3.166131160170
H                     2.444303112379     2.563489769623    -0.158851177404
