66
1 1 C26H32N5O3
C                    -2.216971842407     4.397333649598   -10.927219564685
C                    -1.606832889218    -0.972863006566    -6.508157443725
C                    -2.353360018729     3.007139570885   -10.943869723444
C                    -1.673831460225    -1.309863168347    -5.156548718211
C                     0.720552799507    -0.383998818783    -6.269566822615
C                    -0.977423529853     4.939920067908   -10.578631316301
C                    -0.049257412884     2.864076681317   -10.294975826345
C                    -0.414992966142    -0.503984623576    -7.076769490478
C                    -1.251345805164     2.210902587267   -10.617597904638
C                    -0.541185347560    -1.187949375181    -4.342060338512
C                     0.653113662013    -0.716176646853    -4.922685951514
C                     0.326127549224    -0.989798434176    -2.078187837430
C                    -0.251614037396    -0.126811920930    -8.524214367888
C                     3.012111111403    -0.954602339301    -4.356266513490
C                     1.365017155264    -0.063254467613    -2.711657891039
C                     8.164613460198    -4.280846685146    -2.428605192135
C                     7.159081534486    -3.669690568690    -1.444664331631
C                     7.532762477182    -4.499354030966    -3.809025029093
C                    -1.268363884962    -3.640015353195    -1.702111849261
C                    -1.876163044071    -3.738153912800    -3.078721753180
C                     6.555604525496    -2.364998795218    -1.993467380935
C                     6.929030113730    -3.198273405114    -4.364147576148
C                    -1.631946602449    -2.384162656855    -2.450253937659
C                     5.929578291291    -2.612256513522    -3.365668243836
C                    -1.341316234058     0.699457118253   -10.579087477640
C                     4.130123775533    -0.773840166731    -3.299797926268
N                     0.094435933121     4.194463104054   -10.267493447125
N                    -0.560197361797    -1.557578021676    -2.973914486491
N                     1.765892112642    -0.557401866762    -4.030945779593
N                    -1.397447997582     0.170714885958    -9.209683035833
N                     5.371417891331    -1.316511004682    -3.941989836329
O                     0.309178156628    -1.176868155676    -0.871984891250
O                     0.866563857026    -0.100737015505    -9.041306044208
O                     3.340596044557    -1.440645357718    -5.445054445393
H                    -3.048376869217     5.048351542311   -11.181610110238
H                    -2.494412627575    -1.111117315739    -7.118534669536
H                    -3.303015006202     2.549409739908   -11.215444124140
H                    -2.600531571108    -1.681023523570    -4.736581867296
H                     1.644462294369    -0.042852844605    -6.719959092974
H                    -0.835487401444     6.019130850109   -10.553213807725
H                     0.832614307864     2.274847546471   -10.049604010951
H                     0.936249796288     0.939626237940    -2.821747224724
H                     2.200995664910     0.001598385057    -2.020692871077
H                     8.539028281726    -5.230717026577    -2.035460264946
H                     9.033476094778    -3.616744600144    -2.523771601477
H                     6.351015895011    -4.385603246075    -1.247605802893
H                     7.635711591014    -3.463876231490    -0.481990547588
H                     8.273992108889    -4.878433851237    -4.518210059636
H                     6.745986367158    -5.261172879002    -3.740882345206
H                    -1.871600324700    -3.886962592646    -0.835138652495
H                    -0.212916810843    -3.864601542846    -1.597263179747
H                    -1.227549118758    -4.030021963185    -3.898880589490
H                    -2.907690667963    -4.061309433472    -3.178761995760
H                     5.818875159667    -1.966349842943    -1.286984228686
H                     7.350107686443    -1.612059937660    -2.094440134303
H                     7.733995161050    -2.471019417625    -4.539822418935
H                     6.437601399543    -3.384239527540    -5.326210398643
H                    -2.488950740870    -1.818565390880    -2.093351193439
H                     5.061888710293    -3.274815967579    -3.280349287915
H                    -2.234022889945     0.356473983677   -11.109531374507
H                    -0.470139788000     0.245597276636   -11.053136652243
H                     3.928098378913    -1.332548228061    -2.386504382431
H                     4.279328396352     0.275631856375    -3.042028859397
H                    -2.223262711671     0.401164417313    -8.671637682963
H                     6.114690676248    -0.612213534234    -3.960765318936
H                     5.059232335947    -1.494822472921    -4.929105135668
