
  -OEChem-05262117483D

 39 41  0     1  0  0  0  0  0999 V2000
    1.0747   -3.1768   -2.0399 C   0  0  0  0  0  0  0  0  0  0  0  0
    1.3922   -4.5159   -2.2856 C   0  0  0  0  0  0  0  0  0  0  0  0
    2.0073   -3.3794    0.1818 C   0  0  0  0  0  0  0  0  0  0  0  0
    1.3751   -2.6064   -0.7995 C   0  0  0  0  0  0  0  0  0  0  0  0
    2.0217   -5.2944   -1.3164 C   0  0  0  0  0  0  0  0  0  0  0  0
    2.3438   -4.7157   -0.0677 C   0  0  0  0  0  0  0  0  0  0  0  0
    0.3219   -0.0967    1.4190 C   0  0  0  0  0  0  0  0  0  0  0  0
    3.2330   -7.0493    3.6452 C   0  0  0  0  0  0  0  0  0  0  0  0
    4.0139   -5.9875    4.3898 C   0  0  0  0  0  0  0  0  0  0  0  0
   -0.5246   -0.9116   -0.5972 C   0  0  0  0  0  0  0  0  0  0  0  0
    4.0629   -6.0452    2.8779 C   0  0  0  0  0  0  0  0  0  0  0  0
    1.0087   -1.1590   -0.5298 C   0  0  2  0  0  0  0  0  0  0  0  0
    1.7827   -0.1894   -1.4282 C   0  0  0  0  0  0  0  0  0  0  0  0
    1.7168   -7.6113   -0.8617 C   0  0  0  0  0  0  0  0  0  0  0  0
    3.3757   -4.9667    2.0904 C   0  0  0  0  0  0  0  0  0  0  0  0
   -0.6908    0.0430    0.4888 N   0  0  0  0  0  0  0  0  0  0  0  0
    0.3654    0.3431    2.5467 O   0  0  0  0  0  0  0  0  0  0  0  0
    1.3346   -0.8235    0.8501 O   0  0  0  0  0  0  0  0  0  0  0  0
    2.3684   -6.5882   -1.6307 O   0  0  0  0  0  0  0  0  0  0  0  0
    2.9816   -5.5251    0.8271 O   0  0  0  0  0  0  0  0  0  0  0  0
    0.5875   -2.5934   -2.8170 H   0  0  0  0  0  0  0  0  0  0  0  0
    1.1646   -4.9802   -3.2410 H   0  0  0  0  0  0  0  0  0  0  0  0
    2.2377   -2.9189    1.1327 H   0  0  0  0  0  0  0  0  0  0  0  0
    3.5864   -8.0750    3.6900 H   0  0  0  0  0  0  0  0  0  0  0  0
    2.1523   -6.9462    3.5997 H   0  0  0  0  0  0  0  0  0  0  0  0
    3.4571   -5.1764    4.8512 H   0  0  0  0  0  0  0  0  0  0  0  0
    4.9020   -6.2879    4.9373 H   0  0  0  0  0  0  0  0  0  0  0  0
   -0.8196   -0.4890   -1.5615 H   0  0  0  0  0  0  0  0  0  0  0  0
   -1.0822   -1.8402   -0.4267 H   0  0  0  0  0  0  0  0  0  0  0  0
    4.9833   -6.4123    2.4310 H   0  0  0  0  0  0  0  0  0  0  0  0
    1.4742    0.8411   -1.2268 H   0  0  0  0  0  0  0  0  0  0  0  0
    1.6022   -0.4129   -2.4831 H   0  0  0  0  0  0  0  0  0  0  0  0
    2.8537   -0.2840   -1.2332 H   0  0  0  0  0  0  0  0  0  0  0  0
    2.0399   -8.5610   -1.2928 H   0  0  0  0  0  0  0  0  0  0  0  0
    0.6267   -7.5219   -0.9529 H   0  0  0  0  0  0  0  0  0  0  0  0
    2.0073   -7.5636    0.1909 H   0  0  0  0  0  0  0  0  0  0  0  0
    4.0465   -4.1150    1.9185 H   0  0  0  0  0  0  0  0  0  0  0  0
    2.4903   -4.6037    2.6291 H   0  0  0  0  0  0  0  0  0  0  0  0
   -1.6046    0.2779    0.8545 H   0  0  0  0  0  0  0  0  0  0  0  0
  1  2  1  0  0  0  0
  1  4  2  0  0  0  0
  1 21  1  0  0  0  0
  2  5  2  0  0  0  0
  2 22  1  0  0  0  0
  3  4  1  0  0  0  0
  3  6  2  0  0  0  0
  3 23  1  0  0  0  0
  4 12  1  0  0  0  0
  5  6  1  0  0  0  0
  5 19  1  0  0  0  0
  6 20  1  0  0  0  0
  7 16  1  0  0  0  0
  7 17  2  0  0  0  0
  7 18  1  0  0  0  0
  8  9  1  0  0  0  0
  8 11  1  0  0  0  0
  8 24  1  0  0  0  0
  8 25  1  0  0  0  0
  9 11  1  0  0  0  0
  9 26  1  0  0  0  0
  9 27  1  0  0  0  0
 10 12  1  0  0  0  0
 10 16  1  0  0  0  0
 10 28  1  0  0  0  0
 10 29  1  0  0  0  0
 11 15  1  0  0  0  0
 11 30  1  0  0  0  0
 12 13  1  0  0  0  0
 12 18  1  0  0  0  0
 13 31  1  0  0  0  0
 13 32  1  0  0  0  0
 13 33  1  0  0  0  0
 14 19  1  0  0  0  0
 14 34  1  0  0  0  0
 14 35  1  0  0  0  0
 14 36  1  0  0  0  0
 15 20  1  0  0  0  0
 15 37  1  0  0  0  0
 15 38  1  0  0  0  0
 16 39  1  0  0  0  0
M  END
$$$$
