
  -OEChem-05262117483D

 27 29  0     0  0  0  0  0  0999 V2000
    1.0034    1.2026    1.5241 C   0  0  0  0  0  0  0  0  0  0  0  0
    0.7657    1.8853    2.7321 C   0  0  0  0  0  0  0  0  0  0  0  0
   -1.1838    3.0554   -0.9950 C   0  0  0  0  0  0  0  0  0  0  0  0
   -2.5217    3.5430   -0.9267 C   0  0  0  0  0  0  0  0  0  0  0  0
   -1.3076    0.3865    1.4644 C   0  0  0  0  0  0  0  0  0  0  0  0
   -0.0131    0.4730    0.9019 C   0  0  0  0  0  0  0  0  0  0  0  0
   -0.4992    1.7795    3.2807 C   0  0  0  0  0  0  0  0  0  0  0  0
   -1.5085    1.0403    2.6637 C   0  0  0  0  0  0  0  0  0  0  0  0
   -1.0991    1.8483   -1.6422 C   0  0  0  0  0  0  0  0  0  0  0  0
   -3.4108    2.6751   -1.5108 C   0  0  0  0  0  0  0  0  0  0  0  0
   -2.3486    1.9209    4.5557 C   0  0  0  0  0  0  0  0  0  0  0  0
    0.2582   -0.1646   -0.3500 N   0  0  0  0  0  0  0  0  0  0  0  0
    1.4924    1.7241   -1.5434 O   0  0  0  0  0  0  0  0  0  0  0  0
    0.2195   -0.0796   -2.8623 O   0  0  0  0  0  0  0  0  0  0  0  0
   -0.9747    2.3328    4.4486 O   0  0  0  0  0  0  0  0  0  0  0  0
   -2.6601    1.1014    3.4133 O   0  0  0  0  0  0  0  0  0  0  0  0
   -2.6482    1.2583   -2.1773 S   0  0  0  0  0  0  0  0  0  0  0  0
    0.3513    0.8358   -1.7304 S   0  0  0  0  0  0  0  0  0  0  0  0
   -5.1170    2.8973   -1.6631 Cl  0  0  0  0  0  0  0  0  0  0  0  0
    1.9784    1.2456    1.0523 H   0  0  0  0  0  0  0  0  0  0  0  0
    1.5474    2.4576    3.2207 H   0  0  0  0  0  0  0  0  0  0  0  0
   -0.3161    3.5569   -0.5816 H   0  0  0  0  0  0  0  0  0  0  0  0
   -2.8159    4.4835   -0.4751 H   0  0  0  0  0  0  0  0  0  0  0  0
   -2.1100   -0.1546    0.9721 H   0  0  0  0  0  0  0  0  0  0  0  0
   -2.4803    1.3322    5.4696 H   0  0  0  0  0  0  0  0  0  0  0  0
   -2.9943    2.8056    4.5512 H   0  0  0  0  0  0  0  0  0  0  0  0
   -0.3542   -0.9503   -0.5635 H   0  0  0  0  0  0  0  0  0  0  0  0
  1  2  1  0  0  0  0
  1  6  2  0  0  0  0
  1 20  1  0  0  0  0
  2  7  2  0  0  0  0
  2 21  1  0  0  0  0
  3  4  1  0  0  0  0
  3  9  2  0  0  0  0
  3 22  1  0  0  0  0
  4 10  2  0  0  0  0
  4 23  1  0  0  0  0
  5  6  1  0  0  0  0
  5  8  2  0  0  0  0
  5 24  1  0  0  0  0
  6 12  1  0  0  0  0
  7  8  1  0  0  0  0
  7 15  1  0  0  0  0
  8 16  1  0  0  0  0
  9 17  1  0  0  0  0
  9 18  1  0  0  0  0
 10 17  1  0  0  0  0
 10 19  1  0  0  0  0
 11 15  1  0  0  0  0
 11 16  1  0  0  0  0
 11 25  1  0  0  0  0
 11 26  1  0  0  0  0
 12 18  1  0  0  0  0
 12 27  1  0  0  0  0
 13 18  2  0  0  0  0
 14 18  2  0  0  0  0
M  END
$$$$
