
  -OEChem-05262117483D

 27 29  0     0  0  0  0  0  0999 V2000
    2.1680    1.9754    1.9358 C   0  0  0  0  0  0  0  0  0  0  0  0
    1.8268    2.4040    3.2324 C   0  0  0  0  0  0  0  0  0  0  0  0
   -1.0020    2.8759   -1.8288 C   0  0  0  0  0  0  0  0  0  0  0  0
   -2.0741    3.6990   -1.3781 C   0  0  0  0  0  0  0  0  0  0  0  0
   -0.0762    1.0493    1.5885 C   0  0  0  0  0  0  0  0  0  0  0  0
    1.2335    1.3200    1.1291 C   0  0  0  0  0  0  0  0  0  0  0  0
    0.5453    2.1301    3.6722 C   0  0  0  0  0  0  0  0  0  0  0  0
   -0.3808    1.4599    2.8705 C   0  0  0  0  0  0  0  0  0  0  0  0
    0.1695    3.1298   -1.1575 C   0  0  0  0  0  0  0  0  0  0  0  0
   -1.6748    4.5467   -0.3724 C   0  0  0  0  0  0  0  0  0  0  0  0
   -1.4136    2.0878    4.7529 C   0  0  0  0  0  0  0  0  0  0  0  0
    1.6006    0.9648   -0.2081 N   0  0  0  0  0  0  0  0  0  0  0  0
    2.7637    3.1196   -0.9214 O   0  0  0  0  0  0  0  0  0  0  0  0
    1.6618    1.5660   -2.6494 O   0  0  0  0  0  0  0  0  0  0  0  0
   -0.0190    2.4003    4.9003 O   0  0  0  0  0  0  0  0  0  0  0  0
   -1.5589    1.2913    3.5626 O   0  0  0  0  0  0  0  0  0  0  0  0
    0.0040    4.3777    0.0421 S   0  0  0  0  0  0  0  0  0  0  0  0
    1.6878    2.2324   -1.3490 S   0  0  0  0  0  0  0  0  0  0  0  0
   -2.6621    5.7062    0.4456 Cl  0  0  0  0  0  0  0  0  0  0  0  0
    3.1567    2.1696    1.5366 H   0  0  0  0  0  0  0  0  0  0  0  0
    2.5443    2.9174    3.8640 H   0  0  0  0  0  0  0  0  0  0  0  0
   -1.0761    2.1390   -2.6214 H   0  0  0  0  0  0  0  0  0  0  0  0
   -3.0820    3.6779   -1.7766 H   0  0  0  0  0  0  0  0  0  0  0  0
   -0.8141    0.5628    0.9576 H   0  0  0  0  0  0  0  0  0  0  0  0
   -1.7491    1.5109    5.6167 H   0  0  0  0  0  0  0  0  0  0  0  0
   -1.9853    3.0182    4.6360 H   0  0  0  0  0  0  0  0  0  0  0  0
    1.0378    0.2161   -0.6092 H   0  0  0  0  0  0  0  0  0  0  0  0
  1  2  1  0  0  0  0
  1  6  2  0  0  0  0
  1 20  1  0  0  0  0
  2  7  2  0  0  0  0
  2 21  1  0  0  0  0
  3  4  1  0  0  0  0
  3  9  2  0  0  0  0
  3 22  1  0  0  0  0
  4 10  2  0  0  0  0
  4 23  1  0  0  0  0
  5  6  1  0  0  0  0
  5  8  2  0  0  0  0
  5 24  1  0  0  0  0
  6 12  1  0  0  0  0
  7  8  1  0  0  0  0
  7 15  1  0  0  0  0
  8 16  1  0  0  0  0
  9 17  1  0  0  0  0
  9 18  1  0  0  0  0
 10 17  1  0  0  0  0
 10 19  1  0  0  0  0
 11 15  1  0  0  0  0
 11 16  1  0  0  0  0
 11 25  1  0  0  0  0
 11 26  1  0  0  0  0
 12 18  1  0  0  0  0
 12 27  1  0  0  0  0
 13 18  2  0  0  0  0
 14 18  2  0  0  0  0
M  END
$$$$
