23
0 1 C9FH8N3O2
C                     5.411927465162     0.131080650610    -0.785124595576
C                     2.231249133511    -0.586417595159     0.048353049031
C                     1.221683115293     0.011669347057     0.803140179708
C                     2.143382041151    -1.019569869964     2.800980839865
C                     3.227287858193    -1.384549371865     0.627284517069
C                     3.155967089440    -1.566759055777     2.015905013261
C                     1.194171784789    -0.222588238758     2.173108099993
C                     5.607067223793    -1.231477222360    -0.281332608381
C                     4.275215816283    -2.026772662135    -0.268948787421
N                     5.217547573255     1.200481281091    -1.198537094602
N                     4.551629743657    -3.392716173857     0.181448324908
N                     4.175242165363    -2.336533315869     2.765551150294
O                     3.782040907260    -3.306871115245     3.411329500691
O                     5.331343835636    -1.907648860560     2.749726322771
F                     0.214366190181     0.331524236004     2.921193185421
H                     2.251175941683    -0.425148612371    -1.025592292920
H                     0.463890877197     0.638383262923     0.344231908125
H                     2.099995209115    -1.199850872280     3.869646808332
H                     6.326613814001    -1.738014681468    -0.934903574756
H                     6.027414971172    -1.195976517207     0.725335254424
H                     3.875716846654    -1.986505340339    -1.293359914473
H                     5.293417302773    -3.814066426294    -0.374953264632
H                     3.722018400045    -3.972256470858     0.068885474062
