
  -OEChem-05262117483D

 23 23  0     1  0  0  0  0  0999 V2000
    2.7224   -4.2855   -0.8656 C   0  0  0  0  0  0  0  0  0  0  0  0
    1.7696   -1.2839   -0.0445 C   0  0  0  0  0  0  0  0  0  0  0  0
    0.6651   -0.7531    0.6189 C   0  0  0  0  0  0  0  0  0  0  0  0
    1.8209   -1.0334    2.7337 C   0  0  0  0  0  0  0  0  0  0  0  0
    2.9258   -1.6968    0.6326 C   0  0  0  0  0  0  0  0  0  0  0  0
    2.9189   -1.5291    2.0267 C   0  0  0  0  0  0  0  0  0  0  0  0
    0.7073   -0.6452    2.0059 C   0  0  0  0  0  0  0  0  0  0  0  0
    3.6336   -3.2203   -1.2968 C   0  0  0  0  0  0  0  0  0  0  0  0
    4.0924   -2.3125   -0.1321 C   0  0  1  0  0  0  0  0  0  0  0  0
    1.9976   -5.1201   -0.5054 N   0  0  0  0  0  0  0  0  0  0  0  0
    4.9115   -1.2370   -0.7114 N   0  0  0  0  0  0  0  0  0  0  0  0
    4.1082   -1.8366    2.8437 N   0  3  0  0  0  0  0  0  0  0  0  0
    3.9273   -2.2882    3.9753 O   0  5  0  0  0  0  0  0  0  0  0  0
    5.2195   -1.5890    2.3539 O   0  0  0  0  0  0  0  0  0  0  0  0
   -0.3604   -0.1424    2.6626 F   0  0  0  0  0  0  0  0  0  0  0  0
    1.7249   -1.3790   -1.1233 H   0  0  0  0  0  0  0  0  0  0  0  0
   -0.2215   -0.4355    0.0794 H   0  0  0  0  0  0  0  0  0  0  0  0
    1.8467   -0.9438    3.8133 H   0  0  0  0  0  0  0  0  0  0  0  0
    4.5183   -3.6854   -1.7450 H   0  0  0  0  0  0  0  0  0  0  0  0
    3.1588   -2.6290   -2.0840 H   0  0  0  0  0  0  0  0  0  0  0  0
    4.6556   -2.9517    0.5570 H   0  0  0  0  0  0  0  0  0  0  0  0
    5.7407   -1.6443   -1.1453 H   0  0  0  0  0  0  0  0  0  0  0  0
    5.2549   -0.6581    0.0545 H   0  0  0  0  0  0  0  0  0  0  0  0
  1  8  1  0  0  0  0
  1 10  3  0  0  0  0
  2  3  1  0  0  0  0
  2  5  2  0  0  0  0
  2 16  1  0  0  0  0
  3  7  2  0  0  0  0
  3 17  1  0  0  0  0
  4  6  2  0  0  0  0
  4  7  1  0  0  0  0
  4 18  1  0  0  0  0
  5  6  1  0  0  0  0
  5  9  1  0  0  0  0
  6 12  1  0  0  0  0
  7 15  1  0  0  0  0
  8  9  1  0  0  0  0
  8 19  1  0  0  0  0
  8 20  1  0  0  0  0
  9 11  1  0  0  0  0
  9 21  1  0  0  0  0
 11 22  1  0  0  0  0
 11 23  1  0  0  0  0
 12 13  1  0  0  0  0
 12 14  2  0  0  0  0
M  CHG  2  12   1  13  -1
M  END
$$$$
