26
0 1 C13Cl2H8O2S
C                     2.793445710934    -4.426974791373    -0.595071431172
C                     3.386325512354    -3.425232827552    -2.723344579233
C                     1.765358135794    -0.684255449814    -0.151372379387
C                     2.200976720366    -5.498408600073    -1.264189216531
C                     2.814384088970    -4.507361217720    -3.399063945546
C                     0.727465954712    -0.095760627724     0.569408050989
C                     1.754728934171    -0.856304306852     2.631348856859
C                     2.769193879209    -1.488726801255     1.895600807832
C                     3.376541962373    -3.380293442497    -1.323717779154
C                     2.791626050427    -1.389422966973     0.491547773768
C                     2.218082421327    -5.530811411875    -2.661670102477
C                     0.738543311223    -0.178138834758     1.963917024802
C                     3.736369289116    -2.343417456287     2.653775572259
O                     4.071051157287    -3.470018883510     2.344861083469
O                     4.164079219730    -1.742305001579     3.794570214910
S                     4.164826327991    -2.000995403016    -0.491936999482
Cl                    1.478748662229    -6.883270239410    -3.503188801179
Cl                   -0.539997752189     0.585473193758     2.886659181197
H                     2.820516765999    -4.406803413369     0.489464868766
H                     3.833903819393    -2.612878386705    -3.288729655730
H                     1.786834311338    -0.592880145385    -1.232960421413
H                     1.743432328958    -6.309539249827    -0.706286271867
H                     2.820561883648    -4.546689191757    -4.483772466207
H                    -0.067525462172     0.438692432111     0.058979689437
H                     1.754366373697    -0.914836397037     3.714081837282
H                     4.737361631084    -2.392107263112     4.246294228512
