
  -OEChem-05262117483D

 18 18  0     0  0  0  0  0  0999 V2000
    1.6813   -0.8056   -0.1502 C   0  0  0  0  0  0  0  0  0  0  0  0
    0.6597   -0.2901    0.6495 C   0  0  0  0  0  0  0  0  0  0  0  0
    2.5873   -1.9951    1.7607 C   0  0  0  0  0  0  0  0  0  0  0  0
    1.5551   -1.4867    2.5386 C   0  0  0  0  0  0  0  0  0  0  0  0
    2.6465   -1.6554    0.4044 C   0  0  0  0  0  0  0  0  0  0  0  0
    0.5882   -0.6311    2.0018 C   0  0  0  0  0  0  0  0  0  0  0  0
    3.7430   -4.0558   -0.5136 C   0  0  0  0  0  0  0  0  0  0  0  0
    4.6860   -4.8084   -1.4291 C   0  0  0  0  0  0  0  0  0  0  0  0
    2.9239   -4.5840    0.2033 O   0  0  0  0  0  0  0  0  0  0  0  0
    1.4966   -1.8219    3.8430 F   0  0  0  0  0  0  0  0  0  0  0  0
    3.9689   -2.2544   -0.6314 S   0  0  0  0  0  0  0  0  0  0  0  0
   -0.6844   -0.0066    3.0144 Cl  0  0  0  0  0  0  0  0  0  0  0  0
    1.7223   -0.5503   -1.2043 H   0  0  0  0  0  0  0  0  0  0  0  0
   -0.0907    0.3705    0.2271 H   0  0  0  0  0  0  0  0  0  0  0  0
    3.3176   -2.6525    2.2189 H   0  0  0  0  0  0  0  0  0  0  0  0
    4.1386   -5.0735   -2.3399 H   0  0  0  0  0  0  0  0  0  0  0  0
    4.9978   -5.7321   -0.9364 H   0  0  0  0  0  0  0  0  0  0  0  0
    5.5594   -4.2148   -1.7088 H   0  0  0  0  0  0  0  0  0  0  0  0
  1  2  1  0  0  0  0
  1  5  2  0  0  0  0
  1 13  1  0  0  0  0
  2  6  2  0  0  0  0
  2 14  1  0  0  0  0
  3  4  2  0  0  0  0
  3  5  1  0  0  0  0
  3 15  1  0  0  0  0
  4  6  1  0  0  0  0
  4 10  1  0  0  0  0
  5 11  1  0  0  0  0
  6 12  1  0  0  0  0
  7  8  1  0  0  0  0
  7  9  2  0  0  0  0
  7 11  1  0  0  0  0
  8 16  1  0  0  0  0
  8 17  1  0  0  0  0
  8 18  1  0  0  0  0
M  END
$$$$
