
  -OEChem-05262117483D

 31 33  0     0  0  0  0  0  0999 V2000
    2.7382   -1.0346    0.3968 C   0  0  0  0  0  0  0  0  0  0  0  0
    5.6244   -3.1759    6.1731 C   0  0  0  0  0  0  0  0  0  0  0  0
    1.7942   -1.9556    0.8682 C   0  0  0  0  0  0  0  0  0  0  0  0
    3.2204   -0.0439    1.2553 C   0  0  0  0  0  0  0  0  0  0  0  0
    5.3304   -1.8481    5.8492 C   0  0  0  0  0  0  0  0  0  0  0  0
    4.5854   -4.1144    6.1776 C   0  0  0  0  0  0  0  0  0  0  0  0
    1.3422   -1.8794    2.1861 C   0  0  0  0  0  0  0  0  0  0  0  0
    2.7649    0.0251    2.5766 C   0  0  0  0  0  0  0  0  0  0  0  0
    4.0278   -1.4538    5.5341 C   0  0  0  0  0  0  0  0  0  0  0  0
    3.2817   -3.7316    5.8649 C   0  0  0  0  0  0  0  0  0  0  0  0
    1.8202   -0.8884    3.0581 C   0  0  0  0  0  0  0  0  0  0  0  0
    2.9817   -2.3944    5.5410 C   0  0  0  0  0  0  0  0  0  0  0  0
   -0.0385   -0.2883    4.7731 C   0  0  0  0  0  0  0  0  0  0  0  0
    1.2049    0.4351    5.2387 C   0  0  0  0  0  0  0  0  0  0  0  0
    1.3298   -0.8717    4.4850 C   0  0  0  0  0  0  0  0  0  0  0  0
    1.6492   -2.0318    5.2885 N   0  0  0  0  0  0  0  0  0  0  0  0
    3.0930   -1.0913   -0.6290 H   0  0  0  0  0  0  0  0  0  0  0  0
    6.6407   -3.4752    6.4133 H   0  0  0  0  0  0  0  0  0  0  0  0
    1.4103   -2.7282    0.2067 H   0  0  0  0  0  0  0  0  0  0  0  0
    3.9573    0.6724    0.9002 H   0  0  0  0  0  0  0  0  0  0  0  0
    6.1242   -1.1049    5.8367 H   0  0  0  0  0  0  0  0  0  0  0  0
    4.7906   -5.1538    6.4227 H   0  0  0  0  0  0  0  0  0  0  0  0
    0.6030   -2.5943    2.5425 H   0  0  0  0  0  0  0  0  0  0  0  0
    3.1544    0.7948    3.2371 H   0  0  0  0  0  0  0  0  0  0  0  0
    3.8239   -0.4189    5.2875 H   0  0  0  0  0  0  0  0  0  0  0  0
    2.4828   -4.4714    5.8716 H   0  0  0  0  0  0  0  0  0  0  0  0
   -0.6426   -0.7901    5.5231 H   0  0  0  0  0  0  0  0  0  0  0  0
   -0.5845    0.1297    3.9334 H   0  0  0  0  0  0  0  0  0  0  0  0
    1.4739    1.3545    4.7290 H   0  0  0  0  0  0  0  0  0  0  0  0
    1.4368    0.4055    6.2978 H   0  0  0  0  0  0  0  0  0  0  0  0
    1.0643   -2.8311    5.0695 H   0  0  0  0  0  0  0  0  0  0  0  0
  1  3  1  0  0  0  0
  1  4  2  0  0  0  0
  1 17  1  0  0  0  0
  2  5  1  0  0  0  0
  2  6  2  0  0  0  0
  2 18  1  0  0  0  0
  3  7  2  0  0  0  0
  3 19  1  0  0  0  0
  4  8  1  0  0  0  0
  4 20  1  0  0  0  0
  5  9  2  0  0  0  0
  5 21  1  0  0  0  0
  6 10  1  0  0  0  0
  6 22  1  0  0  0  0
  7 11  1  0  0  0  0
  7 23  1  0  0  0  0
  8 11  2  0  0  0  0
  8 24  1  0  0  0  0
  9 12  1  0  0  0  0
  9 25  1  0  0  0  0
 10 12  2  0  0  0  0
 10 26  1  0  0  0  0
 11 15  1  0  0  0  0
 12 16  1  0  0  0  0
 13 14  1  0  0  0  0
 13 15  1  0  0  0  0
 13 27  1  0  0  0  0
 13 28  1  0  0  0  0
 14 15  1  0  0  0  0
 14 29  1  0  0  0  0
 14 30  1  0  0  0  0
 15 16  1  0  0  0  0
 16 31  1  0  0  0  0
M  END
$$$$
