
  -OEChem-05262117483D

 19 19  0     0  0  0  0  0  0999 V2000
    3.5391    2.8573   -4.4863 C   0  0  0  0  0  0  0  0  0  0  0  0
    3.0387    1.8547   -3.6053 C   0  0  0  0  0  0  0  0  0  0  0  0
    3.3443    4.1265   -3.9940 C   0  0  0  0  0  0  0  0  0  0  0  0
    2.4728    2.3766   -2.4602 C   0  0  0  0  0  0  0  0  0  0  0  0
    1.9445    1.7095   -1.2395 C   0  0  0  0  0  0  0  0  0  0  0  0
    0.9812   -0.2377   -0.1625 C   0  0  0  0  0  0  0  0  0  0  0  0
    0.7138   -0.0086   -2.6027 C   0  0  0  0  0  0  0  0  0  0  0  0
    1.3462    0.4784   -1.3811 N   0  0  0  0  0  0  0  0  0  0  0  0
    2.0875    2.2445   -0.1344 O   0  0  0  0  0  0  0  0  0  0  0  0
    2.5804    4.1142   -2.4464 S   0  0  0  0  0  0  0  0  0  0  0  0
    4.0240    2.6490   -5.4345 H   0  0  0  0  0  0  0  0  0  0  0  0
    3.1209    0.7902   -3.7964 H   0  0  0  0  0  0  0  0  0  0  0  0
    3.6157    5.0670   -4.4573 H   0  0  0  0  0  0  0  0  0  0  0  0
   -0.0480   -0.0071    0.1443 H   0  0  0  0  0  0  0  0  0  0  0  0
    1.6536    0.0513    0.6438 H   0  0  0  0  0  0  0  0  0  0  0  0
    1.0618   -1.3144   -0.3437 H   0  0  0  0  0  0  0  0  0  0  0  0
    1.2132   -0.9090   -2.9828 H   0  0  0  0  0  0  0  0  0  0  0  0
    0.7253    0.7555   -3.3776 H   0  0  0  0  0  0  0  0  0  0  0  0
   -0.3321   -0.2634   -2.3921 H   0  0  0  0  0  0  0  0  0  0  0  0
  1  2  1  0  0  0  0
  1  3  2  0  0  0  0
  1 11  1  0  0  0  0
  2  4  2  0  0  0  0
  2 12  1  0  0  0  0
  3 10  1  0  0  0  0
  3 13  1  0  0  0  0
  4  5  1  0  0  0  0
  4 10  1  0  0  0  0
  5  8  1  0  0  0  0
  5  9  2  0  0  0  0
  6  8  1  0  0  0  0
  6 14  1  0  0  0  0
  6 15  1  0  0  0  0
  6 16  1  0  0  0  0
  7  8  1  0  0  0  0
  7 17  1  0  0  0  0
  7 18  1  0  0  0  0
  7 19  1  0  0  0  0
M  END
$$$$
