31
0 1 C15H15N
C                     2.738221623912    -1.034639635691     0.396849352876
C                     5.624426411221    -3.175913207289     6.173067225376
C                     1.794241686307    -1.955552474094     0.868225801558
C                     3.220442300085    -0.043858006133     1.255268130151
C                     5.330382955657    -1.848148069157     5.849240808544
C                     4.585376660282    -4.114445948148     6.177613445002
C                     1.342203240898    -1.879377414619     2.186055018422
C                     2.764894653046     0.025063134473     2.576643051289
C                     4.027814447533    -1.453834898607     5.534142979299
C                     3.281728784110    -3.731582378527     5.864864691604
C                     1.820158108449    -0.888353654736     3.058060669294
C                     2.981717791849    -2.394364733093     5.540989008375
C                    -0.038453916163    -0.288261686528     4.773095967975
C                     1.204949346535     0.435133842371     5.238710147801
C                     1.329812223129    -0.871695934034     4.485025510216
N                     1.649233636565    -2.031813837082     5.288492149929
H                     3.093028403036    -1.091341164318    -0.629012317704
H                     6.640705312237    -3.475224849532     6.413264412622
H                     1.410313618517    -2.728236023488     0.206731216094
H                     3.957293889975     0.672350730026     0.900217400332
H                     6.124157688298    -1.104874061840     5.836746627677
H                     4.790617046587    -5.153763489215     6.422691355373
H                     0.602961759723    -2.594331503361     2.542520963897
H                     3.154388167521     0.794752662710     3.237122124518
H                     3.823882473048    -0.418916264815     5.287522586152
H                     2.482773782293    -4.471363191824     5.871648288353
H                    -0.642592581878    -0.790080520074     5.523109655623
H                    -0.584537301527     0.129747341002     3.933368020829
H                     1.473933932794     1.354487576542     4.729012447682
H                     1.436807542332     0.405465998315     6.297801792372
H                     1.064302182684    -2.831096097962     5.069518662488
