
  -OEChem-05262117483D

 20 21  0     0  0  0  0  0  0999 V2000
    1.8167   -1.1621   -0.1841 C   0  0  0  0  0  0  0  0  0  0  0  0
    2.9896   -1.4445    0.5205 C   0  0  0  0  0  0  0  0  0  0  0  0
    0.6779   -0.7687    0.5284 C   0  0  0  0  0  0  0  0  0  0  0  0
    3.0450   -1.3417    1.9136 C   0  0  0  0  0  0  0  0  0  0  0  0
    0.7158   -0.6614    1.9168 C   0  0  0  0  0  0  0  0  0  0  0  0
    3.8234   -1.1812    6.8457 C   0  0  0  0  0  0  0  0  0  0  0  0
    4.7127   -1.5132    5.8777 C   0  0  0  0  0  0  0  0  0  0  0  0
    1.8990   -0.9465    2.6255 C   0  0  0  0  0  0  0  0  0  0  0  0
    2.7940   -1.0186    4.9896 C   0  0  0  0  0  0  0  0  0  0  0  0
    2.5921   -0.8643    6.2732 N   0  0  0  0  0  0  0  0  0  0  0  0
    1.8501   -0.8117    4.0230 N   0  0  0  0  0  0  0  0  0  0  0  0
    4.0491   -1.4103    4.6528 O   0  0  0  0  0  0  0  0  0  0  0  0
    1.7885   -1.2462   -1.2666 H   0  0  0  0  0  0  0  0  0  0  0  0
    3.8834   -1.7513   -0.0167 H   0  0  0  0  0  0  0  0  0  0  0  0
   -0.2464   -0.5437    0.0028 H   0  0  0  0  0  0  0  0  0  0  0  0
    3.9653   -1.5657    2.4345 H   0  0  0  0  0  0  0  0  0  0  0  0
   -0.1757   -0.3547    2.4607 H   0  0  0  0  0  0  0  0  0  0  0  0
    3.9751   -1.1460    7.9162 H   0  0  0  0  0  0  0  0  0  0  0  0
    5.7461   -1.8192    5.8356 H   0  0  0  0  0  0  0  0  0  0  0  0
    0.9649   -0.5247    4.4214 H   0  0  0  0  0  0  0  0  0  0  0  0
  1  2  1  0  0  0  0
  1  3  2  0  0  0  0
  1 13  1  0  0  0  0
  2  4  2  0  0  0  0
  2 14  1  0  0  0  0
  3  5  1  0  0  0  0
  3 15  1  0  0  0  0
  4  8  1  0  0  0  0
  4 16  1  0  0  0  0
  5  8  2  0  0  0  0
  5 17  1  0  0  0  0
  6  7  2  0  0  0  0
  6 10  1  0  0  0  0
  6 18  1  0  0  0  0
  7 12  1  0  0  0  0
  7 19  1  0  0  0  0
  8 11  1  0  0  0  0
  9 10  2  0  0  0  0
  9 11  1  0  0  0  0
  9 12  1  0  0  0  0
 11 20  1  0  0  0  0
M  END
$$$$
