19
0 1 C7H9NOS
C                    -4.520872413684     0.940293392816    -3.826960310584
C                    -3.517253384212     1.283327153776    -2.870144528846
C                    -4.587592849149    -0.406426560787    -4.060527182552
C                    -2.836771687591     0.180511215570    -2.392562514266
C                    -1.171156952420    -0.940766620120    -1.012104555382
C                    -0.058727536496    -0.824422544099     0.016876773608
C                    -1.436377321260     1.546610538229    -0.951696833616
N                    -1.795313413037     0.217129923999    -1.443276003468
O                    -1.506369008530    -2.040537990163    -1.450150539320
S                    -3.429928121690    -1.300018212642    -3.121258038686
H                    -5.159032697205     1.671039039710    -4.313218582415
H                    -3.320304485117     2.301794811111    -2.559920130663
H                    -5.251801637444    -0.937088743254    -4.731451711202
H                    -0.410624904607    -0.382039349657     0.954076548824
H                     0.779990883411    -0.224899504894    -0.350505870177
H                     0.293744602735    -1.835867167873     0.216532948604
H                    -2.296050248524     2.014959273041    -0.461006983109
H                    -1.114749762741     2.183078386028    -1.782521151939
H                    -0.624120651195     1.480558601751    -0.234767966650
