
  -OEChem-05262117483D

 20 20  0     0  0  0  0  0  0999 V2000
   -1.7309    3.0668    1.5136 C   0  0  0  0  0  0  0  0  0  0  0  0
   -1.0813    3.7779    2.5061 C   0  0  0  0  0  0  0  0  0  0  0  0
   -0.4751    1.6600    2.5242 C   0  0  0  0  0  0  0  0  0  0  0  0
    0.4607   -0.9925    0.6576 C   0  0  0  0  0  0  0  0  0  0  0  0
    2.2384    0.6611    1.1461 C   0  0  0  0  0  0  0  0  0  0  0  0
   -1.3408    1.7452    1.5336 N   0  0  0  0  0  0  0  0  0  0  0  0
   -0.2721    2.8625    3.1417 N   0  0  0  0  0  0  0  0  0  0  0  0
    1.2702   -0.3058    1.6810 N   0  0  0  0  0  0  0  0  0  0  0  0
    1.4203    0.7487    3.9889 O   0  0  0  0  0  0  0  0  0  0  0  0
   -0.4904   -0.8485    3.4114 O   0  0  0  0  0  0  0  0  0  0  0  0
    0.4397    0.2096    3.0388 S   0  0  0  0  0  0  0  0  0  0  0  0
   -2.4521    3.4315    0.7940 H   0  0  0  0  0  0  0  0  0  0  0  0
   -1.1274    4.8150    2.8061 H   0  0  0  0  0  0  0  0  0  0  0  0
   -0.2175   -1.6922    1.1436 H   0  0  0  0  0  0  0  0  0  0  0  0
    1.1489   -1.5537    0.0197 H   0  0  0  0  0  0  0  0  0  0  0  0
   -0.1152   -0.2850    0.0488 H   0  0  0  0  0  0  0  0  0  0  0  0
    2.8390    1.0669    1.9600 H   0  0  0  0  0  0  0  0  0  0  0  0
    1.7478    1.4784    0.5977 H   0  0  0  0  0  0  0  0  0  0  0  0
    2.8997    0.1253    0.4606 H   0  0  0  0  0  0  0  0  0  0  0  0
    0.3615    3.0076    3.9203 H   0  0  0  0  0  0  0  0  0  0  0  0
  1  2  2  0  0  0  0
  1  6  1  0  0  0  0
  1 12  1  0  0  0  0
  2  7  1  0  0  0  0
  2 13  1  0  0  0  0
  3  6  2  0  0  0  0
  3  7  1  0  0  0  0
  3 11  1  0  0  0  0
  4  8  1  0  0  0  0
  4 14  1  0  0  0  0
  4 15  1  0  0  0  0
  4 16  1  0  0  0  0
  5  8  1  0  0  0  0
  5 17  1  0  0  0  0
  5 18  1  0  0  0  0
  5 19  1  0  0  0  0
  7 20  1  0  0  0  0
  8 11  1  0  0  0  0
  9 11  2  0  0  0  0
 10 11  2  0  0  0  0
M  END
$$$$
