21
0 1 C10H8N2O
C                     1.937067202854    -0.943261865297    -0.139787727143
C                     2.953762359955    -1.579285119571     0.581047705912
C                     0.833341698982    -0.410205256496     0.535097904600
C                     2.869661638766    -1.687310048289     1.972333773550
C                     0.740584829276    -0.513421012140     1.926186742599
C                    -0.040598951862    -4.281689653859     5.912223892916
C                     0.540094215903    -3.205942574632     6.592074974347
C                     0.018602579245    -4.228972607374     4.520680957369
C                     1.760583438615    -1.154579624321     2.625513873762
C                     1.112108866829    -2.248805577036     4.625797327050
N                     1.121046934506    -2.180684388327     5.962892753716
N                     0.594604056568    -3.213747181766     3.862634315981
O                     1.710931921003    -1.189945235824     4.025186611715
H                     2.006560648613    -0.859713822079    -1.220989242259
H                     3.815162918517    -1.990532463580     0.061452799131
H                     0.043667227165     0.088848419746    -0.020307651719
H                     3.648864863066    -2.175149819133     2.550480090776
H                    -0.106528383816    -0.104617636036     2.469028224325
H                    -0.508872368882    -5.107368813913     6.437222080026
H                     0.541014126982    -3.161926148718     7.680450698370
H                    -0.405756087970    -5.019883618163     3.903762852521
