22
0 1 C7H11N3O
C                    -2.304022969966    -2.236154098243     4.382237006960
C                    -1.546778107485    -3.382151251389     4.447863622547
C                    -0.245975183249    -1.599649377376     4.276433585339
C                     1.530769031041     1.617675037042     3.951511798140
C                     0.991009593809     3.033640691511     3.844699849424
C                     0.952206542397    -3.819986755092     4.355584922660
C                     0.990751514083    -0.757524543221     4.170755298253
N                    -1.483502478075    -1.130429802087     4.275970682282
N                    -0.225000096190    -2.964476240515     4.385578443539
N                     0.597314904416     0.632324421990     4.061982822056
O                     2.739435355346     1.372595348636     3.938432744161
H                    -3.381600340870    -2.142571002991     4.410081094678
H                    -1.809959519489    -4.426836877208     4.535882197175
H                     1.405368706196     3.629355909094     4.662521013655
H                     1.342901696607     3.473296654778     2.907448463554
H                    -0.100510220736     3.088508409432     3.878409702477
H                     1.294872239440    -3.986173842083     3.328913277566
H                     1.762466102961    -3.364721487596     4.929668677647
H                     0.709421191748    -4.782751737536     4.808316796593
H                     1.638953824195    -0.897239228033     5.046490172056
H                     1.592241743110    -1.048851160652     3.299387184209
H                    -0.399367077500     0.820988914266     4.075692448891
