
  -OEChem-05262117483D

 22 22  0     0  0  0  0  0  0999 V2000
   -1.6682   -1.7926    4.6871 C   0  0  0  0  0  0  0  0  0  0  0  0
   -1.0839   -3.0242    4.4835 C   0  0  0  0  0  0  0  0  0  0  0  0
    0.4271   -1.4161    4.3457 C   0  0  0  0  0  0  0  0  0  0  0  0
    2.4362   -0.9119    1.7478 C   0  0  0  0  0  0  0  0  0  0  0  0
    2.3323   -0.3331    0.3480 C   0  0  0  0  0  0  0  0  0  0  0  0
    1.2835   -3.7952    4.0523 C   0  0  0  0  0  0  0  0  0  0  0  0
    1.7182   -0.6897    4.1094 C   0  0  0  0  0  0  0  0  0  0  0  0
   -0.7200   -0.7983    4.5991 N   0  0  0  0  0  0  0  0  0  0  0  0
    0.2570   -2.7758    4.2558 N   0  0  0  0  0  0  0  0  0  0  0  0
    1.8422   -0.1830    2.7399 N   0  0  0  0  0  0  0  0  0  0  0  0
    3.0349   -1.9687    1.9673 O   0  0  0  0  0  0  0  0  0  0  0  0
   -2.7079   -1.5713    4.8920 H   0  0  0  0  0  0  0  0  0  0  0  0
   -1.4831   -4.0289    4.4823 H   0  0  0  0  0  0  0  0  0  0  0  0
    3.3314   -0.3041   -0.0930 H   0  0  0  0  0  0  0  0  0  0  0  0
    1.7214   -1.0041   -0.2631 H   0  0  0  0  0  0  0  0  0  0  0  0
    1.8964    0.6692    0.3198 H   0  0  0  0  0  0  0  0  0  0  0  0
    0.8277   -4.6649    3.5746 H   0  0  0  0  0  0  0  0  0  0  0  0
    2.0659   -3.4091    3.3974 H   0  0  0  0  0  0  0  0  0  0  0  0
    1.7165   -4.1047    5.0096 H   0  0  0  0  0  0  0  0  0  0  0  0
    1.7548    0.1624    4.7915 H   0  0  0  0  0  0  0  0  0  0  0  0
    2.5852   -1.3221    4.2998 H   0  0  0  0  0  0  0  0  0  0  0  0
    1.2112    0.5639    2.4780 H   0  0  0  0  0  0  0  0  0  0  0  0
  1  2  2  0  0  0  0
  1  8  1  0  0  0  0
  1 12  1  0  0  0  0
  2  9  1  0  0  0  0
  2 13  1  0  0  0  0
  3  7  1  0  0  0  0
  3  8  2  0  0  0  0
  3  9  1  0  0  0  0
  4  5  1  0  0  0  0
  4 10  1  0  0  0  0
  4 11  2  0  0  0  0
  5 14  1  0  0  0  0
  5 15  1  0  0  0  0
  5 16  1  0  0  0  0
  6  9  1  0  0  0  0
  6 17  1  0  0  0  0
  6 18  1  0  0  0  0
  6 19  1  0  0  0  0
  7 10  1  0  0  0  0
  7 20  1  0  0  0  0
  7 21  1  0  0  0  0
 10 22  1  0  0  0  0
M  END
$$$$
