19
0 1 C8H7N3O
C                     1.390790297384    -0.038587279404     1.603752315837
C                     0.205351825734    -0.432909123168     0.973054219460
C                     1.717462634546    -0.555084938430     2.855257281630
C                    -0.613716355178    -1.345314331929     1.640467398020
C                     3.817331195679    -1.406455704980     6.641904364295
C                     3.123768698795    -2.290317005038     7.398995564298
C                     0.815419895635    -1.467684836779     3.431279201069
C                     2.058591775598    -1.898036642284     5.546557460786
N                    -0.325582253275    -1.858078894448     2.842921287707
N                     3.128608987489    -1.156605716858     5.450865075755
N                     1.015482997323    -2.064073564657     4.680662531380
O                     1.968337596592    -2.623847007883     6.697535208671
H                     2.061772495766     0.669759672023     1.124397758689
H                    -0.077410010916    -0.048618113896    -0.001995363217
H                     2.623087426914    -0.278428452098     3.379437556568
H                    -1.546838132056    -1.684231496365     1.193176450081
H                     4.762044408853    -0.925980276415     6.857318595233
H                     3.255652984376    -2.763188252337     8.359501023553
H                     0.278709815621    -2.700354438273     4.962686234614
