
  -OEChem-05262117483D

 34 37  0     0  0  0  0  0  0999 V2000
    1.1122   -1.5404   -1.8277 C   0  0  0  0  0  0  0  0  0  0  0  0
    1.9457   -0.6395   -1.1531 C   0  0  0  0  0  0  0  0  0  0  0  0
    1.1647   -2.9157   -1.5667 C   0  0  0  0  0  0  0  0  0  0  0  0
    2.8633   -1.0965   -0.1959 C   0  0  0  0  0  0  0  0  0  0  0  0
   -0.9213   -8.6929   -3.0959 C   0  0  0  0  0  0  0  0  0  0  0  0
   -2.8332   -6.8023   -4.0016 C   0  0  0  0  0  0  0  0  0  0  0  0
    2.0739   -3.3736   -0.6089 C   0  0  0  0  0  0  0  0  0  0  0  0
   -0.8350   -7.3396   -2.6562 C   0  0  0  0  0  0  0  0  0  0  0  0
   -1.9246   -9.0487   -3.9651 C   0  0  0  0  0  0  0  0  0  0  0  0
   -2.8636   -8.1199   -4.4132 C   0  0  0  0  0  0  0  0  0  0  0  0
    2.9003   -2.4586    0.0482 C   0  0  0  0  0  0  0  0  0  0  0  0
   -1.8062   -6.4251   -3.1163 C   0  0  0  0  0  0  0  0  0  0  0  0
    2.3820   -4.7473   -0.1180 C   0  0  0  0  0  0  0  0  0  0  0  0
    0.2720   -7.0613   -1.7409 C   0  0  0  0  0  0  0  0  0  0  0  0
   -3.3340  -10.0995   -5.3668 C   0  0  0  0  0  0  0  0  0  0  0  0
    3.3159   -4.8853    0.7837 N   0  0  0  0  0  0  0  0  0  0  0  0
    0.7232   -5.8948   -1.4317 N   0  0  0  0  0  0  0  0  0  0  0  0
    1.7669   -5.8816   -0.5590 N   0  0  0  0  0  0  0  0  0  0  0  0
    5.3578   -3.2963    0.7381 O   0  0  0  0  0  0  0  0  0  0  0  0
    3.6333   -3.0438    2.5703 O   0  0  0  0  0  0  0  0  0  0  0  0
   -2.1901  -10.2811   -4.5128 O   0  0  0  0  0  0  0  0  0  0  0  0
   -3.7560   -8.7239   -5.2569 O   0  0  0  0  0  0  0  0  0  0  0  0
    3.9661   -3.3679    1.1833 S   0  0  0  0  0  0  0  0  0  0  0  0
   -1.8464   -4.7575   -2.5836 Cl  0  0  0  0  0  0  0  0  0  0  0  0
    0.4104   -1.1683   -2.5689 H   0  0  0  0  0  0  0  0  0  0  0  0
    1.8844    0.4226   -1.3738 H   0  0  0  0  0  0  0  0  0  0  0  0
    0.5192   -3.6089   -2.0875 H   0  0  0  0  0  0  0  0  0  0  0  0
    3.5208   -0.4121    0.3317 H   0  0  0  0  0  0  0  0  0  0  0  0
   -0.1961   -9.4254   -2.7553 H   0  0  0  0  0  0  0  0  0  0  0  0
   -3.5722   -6.0832   -4.3359 H   0  0  0  0  0  0  0  0  0  0  0  0
    0.7481   -7.9588   -1.3233 H   0  0  0  0  0  0  0  0  0  0  0  0
   -3.0507  -10.3062   -6.4039 H   0  0  0  0  0  0  0  0  0  0  0  0
   -4.1457  -10.7512   -5.0304 H   0  0  0  0  0  0  0  0  0  0  0  0
    2.1068   -6.7509   -0.1416 H   0  0  0  0  0  0  0  0  0  0  0  0
  1  2  1  0  0  0  0
  1  3  2  0  0  0  0
  1 25  1  0  0  0  0
  2  4  2  0  0  0  0
  2 26  1  0  0  0  0
  3  7  1  0  0  0  0
  3 27  1  0  0  0  0
  4 11  1  0  0  0  0
  4 28  1  0  0  0  0
  5  8  1  0  0  0  0
  5  9  2  0  0  0  0
  5 29  1  0  0  0  0
  6 10  2  0  0  0  0
  6 12  1  0  0  0  0
  6 30  1  0  0  0  0
  7 11  2  0  0  0  0
  7 13  1  0  0  0  0
  8 12  2  0  0  0  0
  8 14  1  0  0  0  0
  9 10  1  0  0  0  0
  9 21  1  0  0  0  0
 10 22  1  0  0  0  0
 11 23  1  0  0  0  0
 12 24  1  0  0  0  0
 13 16  2  0  0  0  0
 13 18  1  0  0  0  0
 14 17  2  0  0  0  0
 14 31  1  0  0  0  0
 15 21  1  0  0  0  0
 15 22  1  0  0  0  0
 15 32  1  0  0  0  0
 15 33  1  0  0  0  0
 16 23  1  0  0  0  0
 17 18  1  0  0  0  0
 18 34  1  0  0  0  0
 19 23  2  0  0  0  0
 20 23  2  0  0  0  0
M  END
$$$$
