34
0 1 C15ClH10N3O4S
C                    -1.339524524691    -4.618982831645     1.886735978282
C                    -0.927330085769    -4.080665000137     3.112158767755
C                    -0.508099050473    -5.474741985426     1.153227020911
C                     0.336043853892    -4.388800497739     3.636072914182
C                    -1.397761439828    -7.363647532062    -2.736007779300
C                    -1.072160951106    -8.944861931199    -5.086716180987
C                     0.753273837316    -5.785248514438     1.671272428027
C                    -0.192919833773    -8.092860581210    -2.940775017678
C                    -2.377362983703    -7.443859869690    -3.693245902662
C                    -2.220743420681    -8.218887615917    -4.848079711964
C                     1.142200063238    -5.236361765175     2.895649669168
C                    -0.061246599939    -8.865065923741    -4.110601248167
C                     1.856631372522    -6.646983518290     1.152927480151
C                     0.873633807439    -8.028719440138    -1.945838246327
C                    -4.188569556915    -7.153196168426    -4.986345155025
N                     2.943084516362    -6.752571972253     1.869323666753
N                     0.752977683290    -7.319959709320    -0.874550649290
N                     1.811634614074    -7.337143194039    -0.021047848926
O                     3.755833088396    -4.717023403505     3.241031976798
O                     2.768153659691    -6.707350980253     4.449017313534
O                    -3.620530376243    -6.854926767159    -3.700380370360
O                    -3.349461403285    -8.141597199050    -5.618219368919
S                     2.802062499251    -5.825036200594     3.283049552219
Cl                    1.401675123351    -9.790002308148    -4.429165352187
H                    -2.322177330822    -4.369420932888     1.496358764324
H                    -1.590811250107    -3.419193555592     3.662273229314
H                    -0.827514399538    -5.889599476910     0.207752221188
H                     0.671439629747    -3.980582941974     4.584705711205
H                    -1.521355725187    -6.767686813295    -1.840248786928
H                    -0.949084349228    -9.548654430349    -5.978333520294
H                     1.781733799751    -8.605100475107    -2.142222714426
H                    -5.191018411530    -7.565801815084    -4.853930337539
H                    -4.198655208875    -6.245610800952    -5.601718999062
H                     2.646241914441    -7.885381246126    -0.238990245156
