38
0 1 C15Cl2H16N4O
C                    -2.492987426344     1.971080427910    -9.906915805307
C                    -3.847122602615     2.320143586382    -9.872747742999
C                    -1.766193304435     1.904829626636    -8.718308467058
C                    -4.469329939519     2.617387548051    -8.658292923815
C                    -0.732671814898     1.542542525465    -4.339490717478
C                    -2.381075003083     2.192417443028    -7.496291541489
C                    -3.733307226353     2.564140101956    -7.472184915991
C                    -0.105954782179     2.714014745792    -4.880123323567
C                    -1.683976925084     1.209901069366    -5.295602926363
C                    -0.473214815604     0.820690807576    -3.106264199304
C                     2.054912612831     0.776161661862    -0.641817972277
C                     0.236436848695    -0.798131813749    -0.866764108266
C                     2.981086435811    -0.243382008538    -1.308492398284
C                     1.197127059590    -1.779993447032    -1.544867497290
C                     1.001245553263     3.524296907514    -4.285789290254
N                    -0.634792234620     3.052338739616    -6.054971424617
N                     0.465003001314     1.200073306628    -2.304336872596
N                    -1.612564735677     2.124824801809    -6.304493328161
N                     0.667807833632     0.591946523324    -1.090611317818
O                     2.530655662519    -1.580887642793    -1.070057191229
Cl                   -4.507125612150     2.993886772153    -5.965672743858
Cl                   -2.780199140617    -0.120422460659    -5.340076587847
H                    -2.007915448108     1.746814258177   -10.852340756538
H                    -4.423548670565     2.368420010553   -10.792424476356
H                    -0.714898493385     1.634025660333    -8.713832527457
H                    -5.515598990555     2.903509458901    -8.624384751019
H                    -1.123686713854    -0.035492725161    -2.912871810282
H                     2.080622782864     0.644389212593     0.445307168411
H                     2.357536761535     1.797042526031    -0.884055910269
H                    -0.795177105167    -0.942459436850    -1.194116454020
H                     0.256200791997    -0.964603984378     0.214879836041
H                     3.023550017660    -0.049773667588    -2.391337421398
H                     3.993949836605    -0.185072103988    -0.900335618521
H                     0.936167932574    -2.814241115872    -1.303985020265
H                     1.165399208029    -1.655568025362    -2.637328527589
H                     1.900174952140     2.915044442573    -4.150831871523
H                     1.228295099872     4.369142183500    -4.940455600537
H                     0.722729940387     3.893027863081    -3.294279094804
