
  -OEChem-05262117483D

 23 23  0     1  0  0  0  0  0999 V2000
    3.2951   -4.7295    2.9689 C   0  0  0  0  0  0  0  0  0  0  0  0
    2.0651   -2.0948   -0.2903 C   0  0  0  0  0  0  0  0  0  0  0  0
    1.0643   -1.2541    0.1835 C   0  0  0  0  0  0  0  0  0  0  0  0
    2.2197   -1.1548    2.3277 C   0  0  0  0  0  0  0  0  0  0  0  0
    3.2423   -1.9905    1.8601 C   0  0  0  0  0  0  0  0  0  0  0  0
    3.1442   -2.4413    0.5298 C   0  0  0  0  0  0  0  0  0  0  0  0
    1.1688   -0.7968    1.4937 C   0  0  0  0  0  0  0  0  0  0  0  0
    3.7231   -3.5692    3.7565 C   0  0  0  0  0  0  0  0  0  0  0  0
    4.2978   -2.4342    2.8688 C   0  0  2  0  0  0  0  0  0  0  0  0
    2.9548   -5.6282    2.3147 N   0  0  0  0  0  0  0  0  0  0  0  0
    4.6296   -1.3112    3.7628 N   0  0  0  0  0  0  0  0  0  0  0  0
    4.1721   -3.2877   -0.1094 N   0  3  0  0  0  0  0  0  0  0  0  0
    5.3505   -3.1526    0.2475 O   0  5  0  0  0  0  0  0  0  0  0  0
    3.8005   -4.0541   -0.9994 O   0  0  0  0  0  0  0  0  0  0  0  0
    0.2085    0.0214    1.9773 F   0  0  0  0  0  0  0  0  0  0  0  0
    2.0286   -2.4854   -1.3003 H   0  0  0  0  0  0  0  0  0  0  0  0
    0.2252   -0.9578   -0.4372 H   0  0  0  0  0  0  0  0  0  0  0  0
    2.2560   -0.7845    3.3466 H   0  0  0  0  0  0  0  0  0  0  0  0
    2.8713   -3.1908    4.3296 H   0  0  0  0  0  0  0  0  0  0  0  0
    4.4866   -3.8956    4.4715 H   0  0  0  0  0  0  0  0  0  0  0  0
    5.1639   -2.8261    2.3378 H   0  0  0  0  0  0  0  0  0  0  0  0
    5.0334   -0.5551    3.2106 H   0  0  0  0  0  0  0  0  0  0  0  0
    5.3566   -1.6061    4.4142 H   0  0  0  0  0  0  0  0  0  0  0  0
  1  8  1  0  0  0  0
  1 10  3  0  0  0  0
  2  3  1  0  0  0  0
  2  6  2  0  0  0  0
  2 16  1  0  0  0  0
  3  7  2  0  0  0  0
  3 17  1  0  0  0  0
  4  5  2  0  0  0  0
  4  7  1  0  0  0  0
  4 18  1  0  0  0  0
  5  6  1  0  0  0  0
  5  9  1  0  0  0  0
  6 12  1  0  0  0  0
  7 15  1  0  0  0  0
  8  9  1  0  0  0  0
  8 19  1  0  0  0  0
  8 20  1  0  0  0  0
  9 11  1  0  0  0  0
  9 21  1  0  0  0  0
 11 22  1  0  0  0  0
 11 23  1  0  0  0  0
 12 13  1  0  0  0  0
 12 14  2  0  0  0  0
M  CHG  2  12   1  13  -1
M  END
$$$$
