
  -OEChem-05262117483D

 32 33  0     0  0  0  0  0  0999 V2000
    7.1793   -3.9080   -1.9796 C   0  0  0  0  0  0  0  0  0  0  0  0
    6.1205   -3.3449   -1.2717 C   0  0  0  0  0  0  0  0  0  0  0  0
    2.8029   -1.6133    1.9265 C   0  0  0  0  0  0  0  0  0  0  0  0
    1.7468   -0.9615   -0.1496 C   0  0  0  0  0  0  0  0  0  0  0  0
    1.7560   -1.0576    2.6495 C   0  0  0  0  0  0  0  0  0  0  0  0
    0.6974   -0.4040    0.5594 C   0  0  0  0  0  0  0  0  0  0  0  0
    7.2099   -3.8794   -3.3820 C   0  0  0  0  0  0  0  0  0  0  0  0
    5.0773   -2.6994   -3.3750 C   0  0  0  0  0  0  0  0  0  0  0  0
    2.8232   -1.5787    0.5220 C   0  0  0  0  0  0  0  0  0  0  0  0
    5.0605   -2.7356   -1.9715 C   0  0  0  0  0  0  0  0  0  0  0  0
    0.6695   -0.4344    1.9833 C   0  0  0  0  0  0  0  0  0  0  0  0
    6.1502   -3.2714   -4.0466 C   0  0  0  0  0  0  0  0  0  0  0  0
   -1.4829    0.7501    1.9779 C   0  0  0  0  0  0  0  0  0  0  0  0
   -0.3861    0.0719    4.1390 C   0  0  0  0  0  0  0  0  0  0  0  0
    3.9313   -2.1716   -0.0997 N   0  0  0  0  0  0  0  0  0  0  0  0
    3.9302   -2.1296   -1.3673 N   0  0  0  0  0  0  0  0  0  0  0  0
   -0.3764    0.1225    2.6850 N   0  0  0  0  0  0  0  0  0  0  0  0
    6.1635   -3.2346   -5.4063 F   0  0  0  0  0  0  0  0  0  0  0  0
    7.9983   -4.3787   -1.4422 H   0  0  0  0  0  0  0  0  0  0  0  0
    6.0925   -3.3646   -0.1882 H   0  0  0  0  0  0  0  0  0  0  0  0
    3.6329   -2.0895    2.4415 H   0  0  0  0  0  0  0  0  0  0  0  0
    1.7546   -0.9309   -1.2342 H   0  0  0  0  0  0  0  0  0  0  0  0
    1.7825   -1.1078    3.7312 H   0  0  0  0  0  0  0  0  0  0  0  0
   -0.1123    0.0613    0.0098 H   0  0  0  0  0  0  0  0  0  0  0  0
    8.0278   -4.3137   -3.9484 H   0  0  0  0  0  0  0  0  0  0  0  0
    4.2629   -2.2310   -3.9182 H   0  0  0  0  0  0  0  0  0  0  0  0
   -2.2041    1.1290    2.7024 H   0  0  0  0  0  0  0  0  0  0  0  0
   -2.0043    0.0387    1.3240 H   0  0  0  0  0  0  0  0  0  0  0  0
   -1.1456    1.5963    1.3654 H   0  0  0  0  0  0  0  0  0  0  0  0
   -1.2870    0.5598    4.5113 H   0  0  0  0  0  0  0  0  0  0  0  0
    0.4807    0.5915    4.5682 H   0  0  0  0  0  0  0  0  0  0  0  0
   -0.3842   -0.9618    4.5094 H   0  0  0  0  0  0  0  0  0  0  0  0
  1  2  1  0  0  0  0
  1  7  2  0  0  0  0
  1 19  1  0  0  0  0
  2 10  2  0  0  0  0
  2 20  1  0  0  0  0
  3  5  2  0  0  0  0
  3  9  1  0  0  0  0
  3 21  1  0  0  0  0
  4  6  1  0  0  0  0
  4  9  2  0  0  0  0
  4 22  1  0  0  0  0
  5 11  1  0  0  0  0
  5 23  1  0  0  0  0
  6 11  2  0  0  0  0
  6 24  1  0  0  0  0
  7 12  1  0  0  0  0
  7 25  1  0  0  0  0
  8 10  1  0  0  0  0
  8 12  2  0  0  0  0
  8 26  1  0  0  0  0
  9 15  1  0  0  0  0
 10 16  1  0  0  0  0
 11 17  1  0  0  0  0
 12 18  1  0  0  0  0
 13 17  1  0  0  0  0
 13 27  1  0  0  0  0
 13 28  1  0  0  0  0
 13 29  1  0  0  0  0
 14 17  1  0  0  0  0
 14 30  1  0  0  0  0
 14 31  1  0  0  0  0
 14 32  1  0  0  0  0
 15 16  2  0  0  0  0
M  END
$$$$
