
  -OEChem-05262117483D

 38 40  0     0  0  0  0  0  0999 V2000
   -3.6932    4.0949   -9.0912 C   0  0  0  0  0  0  0  0  0  0  0  0
   -4.3015    3.1175   -9.8856 C   0  0  0  0  0  0  0  0  0  0  0  0
   -2.8902    3.7111   -8.0170 C   0  0  0  0  0  0  0  0  0  0  0  0
   -4.0991    1.7619   -9.6170 C   0  0  0  0  0  0  0  0  0  0  0  0
   -1.0696    1.2704   -4.6879 C   0  0  0  0  0  0  0  0  0  0  0  0
   -2.6864    2.3576   -7.7357 C   0  0  0  0  0  0  0  0  0  0  0  0
   -3.2839    1.3831   -8.5479 C   0  0  0  0  0  0  0  0  0  0  0  0
   -0.0245    1.7125   -5.5592 C   0  0  0  0  0  0  0  0  0  0  0  0
   -2.2272    1.4763   -5.4333 C   0  0  0  0  0  0  0  0  0  0  0  0
   -0.8844    0.7370   -3.3474 C   0  0  0  0  0  0  0  0  0  0  0  0
   -0.4505   -0.6403   -0.8811 C   0  0  0  0  0  0  0  0  0  0  0  0
   -2.8526   -0.9051   -0.9188 C   0  0  0  0  0  0  0  0  0  0  0  0
   -0.3054   -2.0756   -1.3974 C   0  0  0  0  0  0  0  0  0  0  0  0
   -2.6568   -2.3381   -1.4178 C   0  0  0  0  0  0  0  0  0  0  0  0
    1.4494    1.7247   -5.2884 C   0  0  0  0  0  0  0  0  0  0  0  0
   -0.4990    2.1482   -6.7253 N   0  0  0  0  0  0  0  0  0  0  0  0
   -1.8851    0.3726   -2.6194 N   0  0  0  0  0  0  0  0  0  0  0  0
   -1.8557    1.9951   -6.6414 N   0  0  0  0  0  0  0  0  0  0  0  0
   -1.7257   -0.0541   -1.3267 N   0  0  0  0  0  0  0  0  0  0  0  0
   -1.4084   -2.8745   -0.9653 O   0  0  0  0  0  0  0  0  0  0  0  0
   -2.9986   -0.3139   -8.2469 Cl  0  0  0  0  0  0  0  0  0  0  0  0
   -3.8784    1.2133   -5.0456 Cl  0  0  0  0  0  0  0  0  0  0  0  0
   -3.8471    5.1487   -9.3040 H   0  0  0  0  0  0  0  0  0  0  0  0
   -4.9331    3.4063  -10.7211 H   0  0  0  0  0  0  0  0  0  0  0  0
   -2.4083    4.4474   -7.3812 H   0  0  0  0  0  0  0  0  0  0  0  0
   -4.5578    0.9973  -10.2356 H   0  0  0  0  0  0  0  0  0  0  0  0
    0.1546    0.6803   -3.0123 H   0  0  0  0  0  0  0  0  0  0  0  0
   -0.4717   -0.6515    0.2132 H   0  0  0  0  0  0  0  0  0  0  0  0
    0.3914   -0.0114   -1.1785 H   0  0  0  0  0  0  0  0  0  0  0  0
   -3.7681   -0.4712   -1.3258 H   0  0  0  0  0  0  0  0  0  0  0  0
   -2.9067   -0.8968    0.1753 H   0  0  0  0  0  0  0  0  0  0  0  0
   -0.2437   -2.0832   -2.4957 H   0  0  0  0  0  0  0  0  0  0  0  0
    0.5941   -2.5489   -0.9937 H   0  0  0  0  0  0  0  0  0  0  0  0
   -3.4329   -3.0029   -1.0285 H   0  0  0  0  0  0  0  0  0  0  0  0
   -2.6951   -2.3532   -2.5175 H   0  0  0  0  0  0  0  0  0  0  0  0
    1.8280    0.7148   -5.0951 H   0  0  0  0  0  0  0  0  0  0  0  0
    1.9768    2.1296   -6.1548 H   0  0  0  0  0  0  0  0  0  0  0  0
    1.6911    2.3419   -4.4159 H   0  0  0  0  0  0  0  0  0  0  0  0
  1  2  1  0  0  0  0
  1  3  2  0  0  0  0
  1 23  1  0  0  0  0
  2  4  2  0  0  0  0
  2 24  1  0  0  0  0
  3  6  1  0  0  0  0
  3 25  1  0  0  0  0
  4  7  1  0  0  0  0
  4 26  1  0  0  0  0
  5  8  1  0  0  0  0
  5  9  2  0  0  0  0
  5 10  1  0  0  0  0
  6  7  2  0  0  0  0
  6 18  1  0  0  0  0
  7 21  1  0  0  0  0
  8 15  1  0  0  0  0
  8 16  2  0  0  0  0
  9 18  1  0  0  0  0
  9 22  1  0  0  0  0
 10 17  2  0  0  0  0
 10 27  1  0  0  0  0
 11 13  1  0  0  0  0
 11 19  1  0  0  0  0
 11 28  1  0  0  0  0
 11 29  1  0  0  0  0
 12 14  1  0  0  0  0
 12 19  1  0  0  0  0
 12 30  1  0  0  0  0
 12 31  1  0  0  0  0
 13 20  1  0  0  0  0
 13 32  1  0  0  0  0
 13 33  1  0  0  0  0
 14 20  1  0  0  0  0
 14 34  1  0  0  0  0
 14 35  1  0  0  0  0
 15 36  1  0  0  0  0
 15 37  1  0  0  0  0
 15 38  1  0  0  0  0
 16 18  1  0  0  0  0
 17 19  1  0  0  0  0
M  END
$$$$
