67
1 1 C24H37N4OS
C                     2.500249102952     0.598993279900     0.454140638920
C                     2.784855730735     2.966456829104    -0.140245274926
C                     0.588286680818     1.915188836754    -0.046977061281
C                     1.120028824011     0.673656527711     0.307094013350
C                    -0.773155384961     2.264582138305    -0.250193551135
C                     3.331016905148     1.736061260838     0.242335359516
C                     1.392423682221     3.049375982249    -0.285550992141
C                    -0.800189910924     3.594282916713    -0.618698733245
C                     0.561414204793    -4.786580615119     0.361628582467
C                    -1.816835166613     1.243436452693     0.073645248444
C                     0.732721509930    -1.768953736188    -0.219356569407
C                    -1.596867905538    -2.652467308608     0.175726358188
C                     0.144626280136    -0.491491120056     0.431117810684
C                    -0.351295810042    -2.751167552780    -0.705218291713
C                    -1.215767279210    -0.146246520211    -0.231848088513
C                     4.823329395307     1.595165547743     0.441688601727
C                    -5.128181618197    -1.732594007085     2.630980650064
C                     3.091208102224    -6.305198525587     1.838976920086
C                     0.451666317411    -7.359348200063    -1.725170989638
C                    -2.425489153297     5.528467844762     0.526903748954
C                    -4.164064831402    -2.128914870680     1.504733999119
C                     1.682548411204    -6.685617158909     1.380061890909
C                     1.586153760389    -6.521637158937    -1.124916881532
C                    -3.118308949966    -1.034236609036     1.295633466149
N                     0.522216006174     4.067674070039    -0.634677403166
N                     0.083743463070    -4.143039948767    -0.787122228963
N                     1.259053456449    -5.943248960099     0.181066163710
N                    -2.238657333996    -1.274270957870     0.081812066795
O                     0.315283866786    -4.311791492022     1.482425718870
S                    -2.165062452639     4.614745154083    -1.049914764511
H                     2.977889729199    -0.339240216539     0.727181881802
H                     3.431379734155     3.822212797238    -0.315994535904
H                    -2.065472799163     1.321894652536     1.137201243635
H                    -2.738496848979     1.402363958618    -0.497864742052
H                     1.360871104736    -1.483909468268    -1.067803256152
H                     1.365065844859    -2.275752571796     0.509362132974
H                    -2.344117430734    -3.385915654021    -0.125994008757
H                    -1.328102605023    -2.827602417099     1.214354217304
H                    -0.038630677227    -0.687957959879     1.496208636749
H                    -0.644359933218    -2.488714749001    -1.728467922413
H                    -1.080479907905    -0.204202320538    -1.315830937881
H                     5.218162794681     0.732964137681    -0.105951485405
H                     5.360237964401     2.483778869736     0.100822588751
H                     5.064452383375     1.445859197897     1.500365630661
H                    -4.595071260867    -1.586589738909     3.575876439959
H                    -5.663565627748    -0.807317885617     2.395214411773
H                    -5.870881812206    -2.518639879018     2.787091874874
H                     3.832107892484    -6.484488744120     1.052469261660
H                     3.126490516486    -5.247988148334     2.115860698614
H                     3.377900418482    -6.899273050396     2.712663729914
H                     0.184225907294    -8.180230061779    -1.053235235089
H                    -0.446092155177    -6.756207853615    -1.891097763775
H                     0.760490285147    -7.790324006043    -2.682919604962
H                    -3.272529620398     6.197459035056     0.357354423428
H                    -1.546603113873     6.121774893278     0.784390494491
H                    -2.663596106436     4.837579767166     1.337762565667
H                    -4.728847571939    -2.280128375193     0.574916113697
H                    -3.687897714973    -3.080427391874     1.753087611676
H                     0.960497611557    -6.485087746263     2.171694482451
H                     1.626842720003    -7.752411136535     1.141171644371
H                     1.903689249747    -5.733970136744    -1.818681439443
H                     2.472652675460    -7.145348327514    -0.984411039748
H                    -3.619275771161    -0.079922099803     1.143310054771
H                    -2.449162186864    -0.945635833641     2.154186876690
H                     0.778701648972     4.987817574738    -0.968062300328
H                     0.466653912501    -4.417509864281    -1.680937971491
H                    -2.872605345753    -1.290547602187    -0.722005824876
