
  -OEChem-05262117493D

 37 38  0     1  0  0  0  0  0999 V2000
   -1.8240    0.2152   -0.9715 C   0  0  0  0  0  0  0  0  0  0  0  0
    0.0811    0.9057   -1.5401 C   0  0  0  0  0  0  0  0  0  0  0  0
    1.6938    2.2871    3.0482 C   0  0  0  0  0  0  0  0  0  0  0  0
    1.1567    1.5199    1.8420 C   0  0  2  0  0  0  0  0  0  0  0  0
    0.9404    1.0038    3.2378 C   0  0  0  0  0  0  0  0  0  0  0  0
    4.0021   -2.9416   -1.3077 C   0  0  0  0  0  0  0  0  0  0  0  0
    2.4228   -3.3086    0.5979 C   0  0  0  0  0  0  0  0  0  0  0  0
    4.3156   -1.6583    0.8166 C   0  0  0  0  0  0  0  0  0  0  0  0
    2.0944    0.8331    0.8715 C   0  0  0  0  0  0  0  0  0  0  0  0
    1.4253   -0.3841    0.2096 C   0  0  2  0  0  0  0  0  0  0  0  0
    2.3201   -1.1812   -0.7604 C   0  0  2  0  0  0  0  0  0  0  0  0
    3.2658   -2.2504   -0.1395 C   0  0  0  0  0  0  0  0  0  0  0  0
   -1.2005    1.0346   -1.8687 N   0  0  0  0  0  0  0  0  0  0  0  0
   -1.0128   -0.4039   -0.1190 N   0  0  0  0  0  0  0  0  0  0  0  0
    0.2153    0.0512   -0.4980 N   0  0  0  0  0  0  0  0  0  0  0  0
    3.0223   -0.2056   -1.5491 O   0  0  0  0  0  0  0  0  0  0  0  0
    1.8420   -0.4358    3.7936 Cl  0  0  0  0  0  0  0  0  0  0  0  0
   -0.6994    1.0745    3.9165 Cl  0  0  0  0  0  0  0  0  0  0  0  0
   -2.8963    0.0703   -0.9405 H   0  0  0  0  0  0  0  0  0  0  0  0
    0.9248    1.3839   -2.0178 H   0  0  0  0  0  0  0  0  0  0  0  0
    2.7640    2.2563    3.2304 H   0  0  0  0  0  0  0  0  0  0  0  0
    1.1976    3.2049    3.3469 H   0  0  0  0  0  0  0  0  0  0  0  0
    0.2551    1.9286    1.3945 H   0  0  0  0  0  0  0  0  0  0  0  0
    4.7090   -2.2655   -1.8016 H   0  0  0  0  0  0  0  0  0  0  0  0
    3.2999   -3.3240   -2.0590 H   0  0  0  0  0  0  0  0  0  0  0  0
    4.5833   -3.7925   -0.9390 H   0  0  0  0  0  0  0  0  0  0  0  0
    1.9418   -2.9043    1.4929 H   0  0  0  0  0  0  0  0  0  0  0  0
    1.6409   -3.7236   -0.0486 H   0  0  0  0  0  0  0  0  0  0  0  0
    3.0614   -4.1375    0.9205 H   0  0  0  0  0  0  0  0  0  0  0  0
    3.8726   -1.3429    1.7646 H   0  0  0  0  0  0  0  0  0  0  0  0
    4.8243   -0.8022    0.3628 H   0  0  0  0  0  0  0  0  0  0  0  0
    5.0727   -2.4143    1.0519 H   0  0  0  0  0  0  0  0  0  0  0  0
    3.0007    0.5153    1.3836 H   0  0  0  0  0  0  0  0  0  0  0  0
    2.4047    1.5461    0.1033 H   0  0  0  0  0  0  0  0  0  0  0  0
    1.0540   -1.0545    0.9826 H   0  0  0  0  0  0  0  0  0  0  0  0
    1.6275   -1.7346   -1.4104 H   0  0  0  0  0  0  0  0  0  0  0  0
    3.3541   -0.6426   -2.3474 H   0  0  0  0  0  0  0  0  0  0  0  0
  1 13  1  0  0  0  0
  1 14  2  0  0  0  0
  1 19  1  0  0  0  0
  2 13  2  0  0  0  0
  2 15  1  0  0  0  0
  2 20  1  0  0  0  0
  3  4  1  0  0  0  0
  3  5  1  0  0  0  0
  3 21  1  0  0  0  0
  3 22  1  0  0  0  0
  4  5  1  0  0  0  0
  4  9  1  0  0  0  0
  4 23  1  0  0  0  0
  5 17  1  0  0  0  0
  5 18  1  0  0  0  0
  6 12  1  0  0  0  0
  6 24  1  0  0  0  0
  6 25  1  0  0  0  0
  6 26  1  0  0  0  0
  7 12  1  0  0  0  0
  7 27  1  0  0  0  0
  7 28  1  0  0  0  0
  7 29  1  0  0  0  0
  8 12  1  0  0  0  0
  8 30  1  0  0  0  0
  8 31  1  0  0  0  0
  8 32  1  0  0  0  0
  9 10  1  0  0  0  0
  9 33  1  0  0  0  0
  9 34  1  0  0  0  0
 10 11  1  0  0  0  0
 10 15  1  0  0  0  0
 10 35  1  0  0  0  0
 11 12  1  0  0  0  0
 11 16  1  0  0  0  0
 11 36  1  0  0  0  0
 14 15  1  0  0  0  0
 16 37  1  0  0  0  0
M  END
$$$$
