
  -OEChem-05262117493D

 37 38  0     1  0  0  0  0  0999 V2000
   -1.5040    0.0629   -1.3722 C   0  0  0  0  0  0  0  0  0  0  0  0
    0.3898    0.9231   -1.6840 C   0  0  0  0  0  0  0  0  0  0  0  0
    1.3680    2.8256    2.8851 C   0  0  0  0  0  0  0  0  0  0  0  0
    1.0016    1.9064    1.7215 C   0  0  2  0  0  0  0  0  0  0  0  0
    0.7007    1.5070    3.1406 C   0  0  0  0  0  0  0  0  0  0  0  0
    3.6484   -3.0357   -1.3181 C   0  0  0  0  0  0  0  0  0  0  0  0
    1.5034   -2.1692   -2.2381 C   0  0  0  0  0  0  0  0  0  0  0  0
    1.5443   -3.1950    0.0574 C   0  0  0  0  0  0  0  0  0  0  0  0
    2.0708    1.2019    0.9157 C   0  0  0  0  0  0  0  0  0  0  0  0
    1.5580   -0.1239    0.3261 C   0  0  2  0  0  0  0  0  0  0  0  0
    2.7027   -0.9436   -0.3260 C   0  0  2  0  0  0  0  0  0  0  0  0
    2.3293   -2.3265   -0.9442 C   0  0  0  0  0  0  0  0  0  0  0  0
   -0.8266    0.8959   -2.2161 N   0  0  0  0  0  0  0  0  0  0  0  0
   -0.7823   -0.4197   -0.3647 N   0  0  0  0  0  0  0  0  0  0  0  0
    0.4409    0.1416   -0.5799 N   0  0  0  0  0  0  0  0  0  0  0  0
    3.7381   -1.0684    0.6584 O   0  0  0  0  0  0  0  0  0  0  0  0
    1.6515    0.2064    3.9116 Cl  0  0  0  0  0  0  0  0  0  0  0  0
   -0.9968    1.5046    3.6671 Cl  0  0  0  0  0  0  0  0  0  0  0  0
   -2.5487   -0.1913   -1.4955 H   0  0  0  0  0  0  0  0  0  0  0  0
    1.2388    1.4749   -2.0649 H   0  0  0  0  0  0  0  0  0  0  0  0
    2.4170    2.9018    3.1556 H   0  0  0  0  0  0  0  0  0  0  0  0
    0.7783    3.7218    3.0484 H   0  0  0  0  0  0  0  0  0  0  0  0
    0.1157    2.1939    1.1618 H   0  0  0  0  0  0  0  0  0  0  0  0
    4.2744   -3.2288   -0.4444 H   0  0  0  0  0  0  0  0  0  0  0  0
    4.2358   -2.4299   -2.0177 H   0  0  0  0  0  0  0  0  0  0  0  0
    3.4298   -3.9921   -1.8045 H   0  0  0  0  0  0  0  0  0  0  0  0
    0.4782   -1.8480   -2.0546 H   0  0  0  0  0  0  0  0  0  0  0  0
    1.9717   -1.4581   -2.9280 H   0  0  0  0  0  0  0  0  0  0  0  0
    1.4511   -3.1346   -2.7528 H   0  0  0  0  0  0  0  0  0  0  0  0
    0.5612   -2.7726    0.2833 H   0  0  0  0  0  0  0  0  0  0  0  0
    2.0871   -3.3340    1.0016 H   0  0  0  0  0  0  0  0  0  0  0  0
    1.3862   -4.1944   -0.3611 H   0  0  0  0  0  0  0  0  0  0  0  0
    2.9448    0.9875    1.5299 H   0  0  0  0  0  0  0  0  0  0  0  0
    2.4078    1.8653    0.1101 H   0  0  0  0  0  0  0  0  0  0  0  0
    1.1225   -0.7148    1.1338 H   0  0  0  0  0  0  0  0  0  0  0  0
    3.1600   -0.3380   -1.1176 H   0  0  0  0  0  0  0  0  0  0  0  0
    3.4060   -1.6333    1.3754 H   0  0  0  0  0  0  0  0  0  0  0  0
  1 13  1  0  0  0  0
  1 14  2  0  0  0  0
  1 19  1  0  0  0  0
  2 13  2  0  0  0  0
  2 15  1  0  0  0  0
  2 20  1  0  0  0  0
  3  4  1  0  0  0  0
  3  5  1  0  0  0  0
  3 21  1  0  0  0  0
  3 22  1  0  0  0  0
  4  5  1  0  0  0  0
  4  9  1  0  0  0  0
  4 23  1  0  0  0  0
  5 17  1  0  0  0  0
  5 18  1  0  0  0  0
  6 12  1  0  0  0  0
  6 24  1  0  0  0  0
  6 25  1  0  0  0  0
  6 26  1  0  0  0  0
  7 12  1  0  0  0  0
  7 27  1  0  0  0  0
  7 28  1  0  0  0  0
  7 29  1  0  0  0  0
  8 12  1  0  0  0  0
  8 30  1  0  0  0  0
  8 31  1  0  0  0  0
  8 32  1  0  0  0  0
  9 10  1  0  0  0  0
  9 33  1  0  0  0  0
  9 34  1  0  0  0  0
 10 11  1  0  0  0  0
 10 15  1  0  0  0  0
 10 35  1  0  0  0  0
 11 12  1  0  0  0  0
 11 16  1  0  0  0  0
 11 36  1  0  0  0  0
 14 15  1  0  0  0  0
 16 37  1  0  0  0  0
M  END
$$$$
