
  -OEChem-05262117493D

 66 69  0     1  0  0  0  0  0999 V2000
   -2.0219    2.3676   -1.0848 C   0  0  0  0  0  0  0  0  0  0  0  0
   -3.7792    1.3291   -2.4535 C   0  0  0  0  0  0  0  0  0  0  0  0
   -2.1945    0.0013   -1.1567 C   0  0  0  0  0  0  0  0  0  0  0  0
   -1.5334    1.1342   -0.6661 C   0  0  0  0  0  0  0  0  0  0  0  0
   -1.8935   -1.3672   -0.9015 C   0  0  0  0  0  0  0  0  0  0  0  0
   -3.1384    2.4709   -1.9630 C   0  0  0  0  0  0  0  0  0  0  0  0
   -3.2887    0.0785   -2.0447 C   0  0  0  0  0  0  0  0  0  0  0  0
   -2.7943   -2.1112   -1.6345 C   0  0  0  0  0  0  0  0  0  0  0  0
    2.8518    1.9914    3.1948 C   0  0  0  0  0  0  0  0  0  0  0  0
   -0.7759   -1.6913    0.0405 C   0  0  0  0  0  0  0  0  0  0  0  0
    0.7506    1.9407    0.0917 C   0  0  0  0  0  0  0  0  0  0  0  0
    2.4641    0.1873    0.6560 C   0  0  0  0  0  0  0  0  0  0  0  0
   -0.3482    0.8729    0.2532 C   0  0  2  0  0  0  0  0  0  0  0  0
    0.2652   -0.5482   -0.0018 C   0  0  1  0  0  0  0  0  0  0  0  0
    2.0153    1.6410    0.9027 C   0  0  2  0  0  0  0  0  0  0  0  0
   -3.6278    3.8465   -2.3607 C   0  0  0  0  0  0  0  0  0  0  0  0
    3.2011   -2.6911    2.4792 C   0  0  0  0  0  0  0  0  0  0  0  0
    4.3068    3.5242    5.6487 C   0  0  0  0  0  0  0  0  0  0  0  0
    0.3741    1.3400    5.5000 C   0  0  0  0  0  0  0  0  0  0  0  0
   -1.9125   -4.1970   -3.2262 C   0  0  0  0  0  0  0  0  0  0  0  0
    2.3584   -1.5597    3.0777 C   0  0  0  0  0  0  0  0  0  0  0  0
    1.1263   -1.2092    2.2355 C   0  0  0  0  0  0  0  0  0  0  0  0
    3.6553    2.1474    5.4851 C   0  0  0  0  0  0  0  0  0  0  0  0
    1.2238    2.5267    5.0263 C   0  0  0  0  0  0  0  0  0  0  0  0
   -3.6382   -1.2258   -2.3388 N   0  0  0  0  0  0  0  0  0  0  0  0
    1.4272   -0.8268    0.8524 N   0  0  2  0  0  0  0  0  0  0  0  0
    1.7809    1.9581    2.3175 N   0  0  0  0  0  0  0  0  0  0  0  0
    2.5433    2.1426    4.5319 N   0  0  0  0  0  0  0  0  0  0  0  0
    4.0210    1.9000    2.7980 O   0  0  0  0  0  0  0  0  0  0  0  0
   -2.9859   -3.8528   -1.7711 S   0  0  0  0  0  0  0  0  0  0  0  0
   -1.5519    3.2895   -0.7506 H   0  0  0  0  0  0  0  0  0  0  0  0
   -4.6228    1.4208   -3.1338 H   0  0  0  0  0  0  0  0  0  0  0  0
   -1.1884   -1.7915    1.0507 H   0  0  0  0  0  0  0  0  0  0  0  0
   -0.2837   -2.6390   -0.1987 H   0  0  0  0  0  0  0  0  0  0  0  0
    1.0254    1.9836   -0.9688 H   0  0  0  0  0  0  0  0  0  0  0  0
    0.3731    2.9321    0.3619 H   0  0  0  0  0  0  0  0  0  0  0  0
    2.7936    0.1197   -0.3903 H   0  0  0  0  0  0  0  0  0  0  0  0
    3.3345   -0.0299    1.2724 H   0  0  0  0  0  0  0  0  0  0  0  0
   -0.7236    0.8883    1.2886 H   0  0  0  0  0  0  0  0  0  0  0  0
    0.6516   -0.5242   -1.0312 H   0  0  0  0  0  0  0  0  0  0  0  0
    2.8217    2.3009    0.5711 H   0  0  0  0  0  0  0  0  0  0  0  0
   -2.8127    4.4564   -2.7661 H   0  0  0  0  0  0  0  0  0  0  0  0
   -4.4131    3.7898   -3.1197 H   0  0  0  0  0  0  0  0  0  0  0  0
   -4.0366    4.3861   -1.4980 H   0  0  0  0  0  0  0  0  0  0  0  0
    2.5985   -3.5964    2.3408 H   0  0  0  0  0  0  0  0  0  0  0  0
    3.6035   -2.4142    1.5011 H   0  0  0  0  0  0  0  0  0  0  0  0
    4.0415   -2.9410    3.1355 H   0  0  0  0  0  0  0  0  0  0  0  0
    4.7298    3.8503    4.6954 H   0  0  0  0  0  0  0  0  0  0  0  0
    3.5812    4.2736    5.9845 H   0  0  0  0  0  0  0  0  0  0  0  0
    5.1125    3.4802    6.3903 H   0  0  0  0  0  0  0  0  0  0  0  0
    0.1720    0.6392    4.6837 H   0  0  0  0  0  0  0  0  0  0  0  0
    0.8915    0.7838    6.2881 H   0  0  0  0  0  0  0  0  0  0  0  0
   -0.5856    1.6870    5.8991 H   0  0  0  0  0  0  0  0  0  0  0  0
   -1.9660   -5.2735   -3.4101 H   0  0  0  0  0  0  0  0  0  0  0  0
   -0.8800   -3.9155   -3.0104 H   0  0  0  0  0  0  0  0  0  0  0  0
   -2.2687   -3.6614   -4.1085 H   0  0  0  0  0  0  0  0  0  0  0  0
    2.9813   -0.6772    3.2486 H   0  0  0  0  0  0  0  0  0  0  0  0
    1.9889   -1.8608    4.0661 H   0  0  0  0  0  0  0  0  0  0  0  0
    0.4994   -2.1049    2.1986 H   0  0  0  0  0  0  0  0  0  0  0  0
    0.5332   -0.4513    2.7802 H   0  0  0  0  0  0  0  0  0  0  0  0
    3.2679    1.7879    6.4452 H   0  0  0  0  0  0  0  0  0  0  0  0
    4.3977    1.4268    5.1385 H   0  0  0  0  0  0  0  0  0  0  0  0
    1.3685    3.2225    5.8600 H   0  0  0  0  0  0  0  0  0  0  0  0
    0.6982    3.0956    4.2536 H   0  0  0  0  0  0  0  0  0  0  0  0
   -4.4385   -1.5301   -2.8754 H   0  0  0  0  0  0  0  0  0  0  0  0
    0.8863    1.6712    2.6878 H   0  0  0  0  0  0  0  0  0  0  0  0
  1  4  1  0  0  0  0
  1  6  2  0  0  0  0
  1 31  1  0  0  0  0
  2  6  1  0  0  0  0
  2  7  2  0  0  0  0
  2 32  1  0  0  0  0
  3  4  2  0  0  0  0
  3  5  1  0  0  0  0
  3  7  1  0  0  0  0
  4 13  1  0  0  0  0
  5  8  2  0  0  0  0
  5 10  1  0  0  0  0
  6 16  1  0  0  0  0
  7 25  1  0  0  0  0
  8 25  1  0  0  0  0
  8 30  1  0  0  0  0
  9 27  1  0  0  0  0
  9 28  1  0  0  0  0
  9 29  2  0  0  0  0
 10 14  1  0  0  0  0
 10 33  1  0  0  0  0
 10 34  1  0  0  0  0
 11 13  1  0  0  0  0
 11 15  1  0  0  0  0
 11 35  1  0  0  0  0
 11 36  1  0  0  0  0
 12 15  1  0  0  0  0
 12 26  1  0  0  0  0
 12 37  1  0  0  0  0
 12 38  1  0  0  0  0
 13 14  1  0  0  0  0
 13 39  1  0  0  0  0
 14 26  1  0  0  0  0
 14 40  1  0  0  0  0
 15 27  1  0  0  0  0
 15 41  1  0  0  0  0
 16 42  1  0  0  0  0
 16 43  1  0  0  0  0
 16 44  1  0  0  0  0
 17 21  1  0  0  0  0
 17 45  1  0  0  0  0
 17 46  1  0  0  0  0
 17 47  1  0  0  0  0
 18 23  1  0  0  0  0
 18 48  1  0  0  0  0
 18 49  1  0  0  0  0
 18 50  1  0  0  0  0
 19 24  1  0  0  0  0
 19 51  1  0  0  0  0
 19 52  1  0  0  0  0
 19 53  1  0  0  0  0
 20 30  1  0  0  0  0
 20 54  1  0  0  0  0
 20 55  1  0  0  0  0
 20 56  1  0  0  0  0
 21 22  1  0  0  0  0
 21 57  1  0  0  0  0
 21 58  1  0  0  0  0
 22 26  1  0  0  0  0
 22 59  1  0  0  0  0
 22 60  1  0  0  0  0
 23 28  1  0  0  0  0
 23 61  1  0  0  0  0
 23 62  1  0  0  0  0
 24 28  1  0  0  0  0
 24 63  1  0  0  0  0
 24 64  1  0  0  0  0
 25 65  1  0  0  0  0
 27 66  1  0  0  0  0
M  END
$$$$
