
  -OEChem-05262117493D

 51 52  0     1  0  0  0  0  0999 V2000
    1.1963   -5.2432   11.8874 C   0  0  0  0  0  0  0  0  0  0  0  0
    1.9852   -7.2849   10.1350 C   0  0  0  0  0  0  0  0  0  0  0  0
    4.6375   -7.3935   12.5264 C   0  0  0  0  0  0  0  0  0  0  0  0
    2.3895   -5.9590   12.1563 C   0  0  0  0  0  0  0  0  0  0  0  0
    2.7872   -6.9930   11.2675 C   0  0  0  0  0  0  0  0  0  0  0  0
    0.4226   -5.5333   10.7854 C   0  0  0  0  0  0  0  0  0  0  0  0
    0.8271   -6.5711    9.8850 C   0  0  0  0  0  0  0  0  0  0  0  0
    3.2578   -5.7274   13.2841 C   0  0  0  0  0  0  0  0  0  0  0  0
    3.3479   -5.6326   16.4848 C   0  0  0  0  0  0  0  0  0  0  0  0
    3.5061   -3.1492   15.9513 C   0  0  0  0  0  0  0  0  0  0  0  0
   -1.9467   -5.4582   10.6894 C   0  0  0  0  0  0  0  0  0  0  0  0
   -2.2952   -9.7274    2.0532 C   0  0  0  0  0  0  0  0  0  0  0  0
   -0.6670   -7.7402    6.7493 C   0  0  0  0  0  0  0  0  0  0  0  0
   -0.3607   -8.7770    5.6609 C   0  0  0  0  0  0  0  0  0  0  0  0
    0.3837   -7.7553    7.8498 C   0  0  0  0  0  0  0  0  0  0  0  0
   -1.4074   -8.7457    4.5504 C   0  0  0  0  0  0  0  0  0  0  0  0
    3.7312   -4.5741   15.4422 C   0  0  0  0  0  0  0  0  0  0  0  0
    3.9345   -7.7204   11.4611 N   0  0  0  0  0  0  0  0  0  0  0  0
    4.3680   -6.4472   13.4562 N   0  0  0  0  0  0  0  0  0  0  0  0
    0.2804   -9.7474    2.5147 N   0  0  0  0  0  0  0  0  0  0  0  0
    2.9798   -4.7500   14.1934 N   0  0  0  0  0  0  0  0  0  0  0  0
   -1.2942  -11.3306    3.9827 O   0  0  0  0  0  0  0  0  0  0  0  0
   -0.6950   -4.7736   10.5266 O   0  0  0  0  0  0  0  0  0  0  0  0
    0.0100   -6.7625    8.8113 O   0  0  0  0  0  0  0  0  0  0  0  0
   -1.0293  -10.0385    3.2950 S   0  0  2  0  0  0  0  0  0  0  0  0
    0.8528   -4.4297   12.5201 H   0  0  0  0  0  0  0  0  0  0  0  0
    2.3316   -8.0750    9.4799 H   0  0  0  0  0  0  0  0  0  0  0  0
    5.5553   -7.9560   12.6960 H   0  0  0  0  0  0  0  0  0  0  0  0
    2.2918   -5.5391   16.7649 H   0  0  0  0  0  0  0  0  0  0  0  0
    3.5183   -6.6356   16.0862 H   0  0  0  0  0  0  0  0  0  0  0  0
    3.9518   -5.5152   17.3913 H   0  0  0  0  0  0  0  0  0  0  0  0
    2.4482   -2.9763   16.1887 H   0  0  0  0  0  0  0  0  0  0  0  0
    3.8170   -2.4113   15.2055 H   0  0  0  0  0  0  0  0  0  0  0  0
    4.0790   -2.9781   16.8674 H   0  0  0  0  0  0  0  0  0  0  0  0
   -2.7239   -4.7193   10.4845 H   0  0  0  0  0  0  0  0  0  0  0  0
   -2.0511   -5.8245   11.7186 H   0  0  0  0  0  0  0  0  0  0  0  0
   -2.0370   -6.2926    9.9881 H   0  0  0  0  0  0  0  0  0  0  0  0
   -2.1664  -10.4995    1.2936 H   0  0  0  0  0  0  0  0  0  0  0  0
   -3.2719   -9.8168    2.5310 H   0  0  0  0  0  0  0  0  0  0  0  0
   -2.1428   -8.7386    1.6207 H   0  0  0  0  0  0  0  0  0  0  0  0
   -0.7094   -6.7342    6.3170 H   0  0  0  0  0  0  0  0  0  0  0  0
   -1.6483   -7.9405    7.1944 H   0  0  0  0  0  0  0  0  0  0  0  0
   -0.3309   -9.7814    6.0970 H   0  0  0  0  0  0  0  0  0  0  0  0
    0.6274   -8.5768    5.2292 H   0  0  0  0  0  0  0  0  0  0  0  0
    0.4323   -8.7403    8.3322 H   0  0  0  0  0  0  0  0  0  0  0  0
    1.3772   -7.5212    7.4459 H   0  0  0  0  0  0  0  0  0  0  0  0
   -2.4081   -8.9631    4.9355 H   0  0  0  0  0  0  0  0  0  0  0  0
   -1.4110   -7.7856    4.0258 H   0  0  0  0  0  0  0  0  0  0  0  0
    4.7843   -4.7066   15.1849 H   0  0  0  0  0  0  0  0  0  0  0  0
    1.0946  -10.0394    3.0591 H   0  0  0  0  0  0  0  0  0  0  0  0
    2.0562   -4.3410   14.1657 H   0  0  0  0  0  0  0  0  0  0  0  0
  1  4  1  0  0  0  0
  1  6  2  0  0  0  0
  1 26  1  0  0  0  0
  2  5  1  0  0  0  0
  2  7  2  0  0  0  0
  2 27  1  0  0  0  0
  3 18  1  0  0  0  0
  3 19  2  0  0  0  0
  3 28  1  0  0  0  0
  4  5  1  0  0  0  0
  4  8  2  0  0  0  0
  5 18  2  0  0  0  0
  6  7  1  0  0  0  0
  6 23  1  0  0  0  0
  7 24  1  0  0  0  0
  8 19  1  0  0  0  0
  8 21  1  0  0  0  0
  9 17  1  0  0  0  0
  9 29  1  0  0  0  0
  9 30  1  0  0  0  0
  9 31  1  0  0  0  0
 10 17  1  0  0  0  0
 10 32  1  0  0  0  0
 10 33  1  0  0  0  0
 10 34  1  0  0  0  0
 11 23  1  0  0  0  0
 11 35  1  0  0  0  0
 11 36  1  0  0  0  0
 11 37  1  0  0  0  0
 12 25  1  0  0  0  0
 12 38  1  0  0  0  0
 12 39  1  0  0  0  0
 12 40  1  0  0  0  0
 13 14  1  0  0  0  0
 13 15  1  0  0  0  0
 13 41  1  0  0  0  0
 13 42  1  0  0  0  0
 14 16  1  0  0  0  0
 14 43  1  0  0  0  0
 14 44  1  0  0  0  0
 15 24  1  0  0  0  0
 15 45  1  0  0  0  0
 15 46  1  0  0  0  0
 16 25  1  0  0  0  0
 16 47  1  0  0  0  0
 16 48  1  0  0  0  0
 17 21  1  0  0  0  0
 17 49  1  0  0  0  0
 20 25  2  0  0  0  0
 20 50  1  0  0  0  0
 21 51  1  0  0  0  0
 22 25  2  0  0  0  0
M  END
$$$$
