
  -OEChem-05262117483D

 41 42  0     0  0  0  0  0  0999 V2000
    0.9149   -0.5678   -1.1222 C   0  0  0  0  0  0  0  0  0  0  0  0
   -1.2149    1.0794    2.8882 C   0  0  0  0  0  0  0  0  0  0  0  0
   -1.2189   -0.4711    2.8057 C   0  0  0  0  0  0  0  0  0  0  0  0
   -0.4465    1.5563    1.6403 C   0  0  0  0  0  0  0  0  0  0  0  0
   -0.4551   -0.8311    1.5129 C   0  0  0  0  0  0  0  0  0  0  0  0
   -1.0728    1.8608   -1.8752 C   0  0  0  0  0  0  0  0  0  0  0  0
    0.3094    1.8125   -1.2052 C   0  0  0  0  0  0  0  0  0  0  0  0
   -1.9688    0.4472   -0.1016 C   0  0  0  0  0  0  0  0  0  0  0  0
   -0.5910    0.4103    0.6065 C   0  0  0  0  0  0  0  0  0  0  0  0
    1.2216   -2.1083   -3.7077 C   0  0  0  0  0  0  0  0  0  0  0  0
    2.9993   -0.3753   -4.1139 C   0  0  0  0  0  0  0  0  0  0  0  0
    3.3099   -2.0417   -2.2542 C   0  0  0  0  0  0  0  0  0  0  0  0
    2.2913   -1.2263   -3.0563 C   0  0  0  0  0  0  0  0  0  0  0  0
   -2.1887    1.6247   -0.9504 N   0  0  0  0  0  0  0  0  0  0  0  0
    0.4468    0.5479   -0.4557 N   0  0  0  0  0  0  0  0  0  0  0  0
    0.7240   -1.7305   -0.7878 O   0  0  0  0  0  0  0  0  0  0  0  0
    1.6640   -0.2052   -2.2020 O   0  0  0  0  0  0  0  0  0  0  0  0
   -2.2377    1.4702    2.8840 H   0  0  0  0  0  0  0  0  0  0  0  0
   -0.7450    1.4473    3.8046 H   0  0  0  0  0  0  0  0  0  0  0  0
   -0.7477   -0.9316    3.6787 H   0  0  0  0  0  0  0  0  0  0  0  0
   -2.2442   -0.8524    2.7685 H   0  0  0  0  0  0  0  0  0  0  0  0
   -0.8113    2.5243    1.2862 H   0  0  0  0  0  0  0  0  0  0  0  0
    0.6197    1.6758    1.8618 H   0  0  0  0  0  0  0  0  0  0  0  0
    0.6054   -0.9935    1.7249 H   0  0  0  0  0  0  0  0  0  0  0  0
   -0.8242   -1.7390    1.0388 H   0  0  0  0  0  0  0  0  0  0  0  0
   -1.2254    2.8265   -2.3700 H   0  0  0  0  0  0  0  0  0  0  0  0
   -1.1077    1.0869   -2.6528 H   0  0  0  0  0  0  0  0  0  0  0  0
    1.1061    1.8850   -1.9418 H   0  0  0  0  0  0  0  0  0  0  0  0
    0.4292    2.6439   -0.5057 H   0  0  0  0  0  0  0  0  0  0  0  0
   -2.0448   -0.4479   -0.7306 H   0  0  0  0  0  0  0  0  0  0  0  0
   -2.7812    0.3972    0.6303 H   0  0  0  0  0  0  0  0  0  0  0  0
    0.7181   -2.7321   -2.9693 H   0  0  0  0  0  0  0  0  0  0  0  0
    0.4769   -1.4868   -4.2160 H   0  0  0  0  0  0  0  0  0  0  0  0
    1.6910   -2.7554   -4.4562 H   0  0  0  0  0  0  0  0  0  0  0  0
    3.7333    0.2877   -3.6461 H   0  0  0  0  0  0  0  0  0  0  0  0
    2.2771    0.2385   -4.6609 H   0  0  0  0  0  0  0  0  0  0  0  0
    3.5190   -1.0196   -4.8292 H   0  0  0  0  0  0  0  0  0  0  0  0
    4.0180   -1.3737   -1.7532 H   0  0  0  0  0  0  0  0  0  0  0  0
    2.8180   -2.6623   -1.5053 H   0  0  0  0  0  0  0  0  0  0  0  0
    3.8748   -2.6879   -2.9345 H   0  0  0  0  0  0  0  0  0  0  0  0
   -2.3152    2.4453   -0.3614 H   0  0  0  0  0  0  0  0  0  0  0  0
  1 15  1  0  0  0  0
  1 16  2  0  0  0  0
  1 17  1  0  0  0  0
  2  3  1  0  0  0  0
  2  4  1  0  0  0  0
  2 18  1  0  0  0  0
  2 19  1  0  0  0  0
  3  5  1  0  0  0  0
  3 20  1  0  0  0  0
  3 21  1  0  0  0  0
  4  9  1  0  0  0  0
  4 22  1  0  0  0  0
  4 23  1  0  0  0  0
  5  9  1  0  0  0  0
  5 24  1  0  0  0  0
  5 25  1  0  0  0  0
  6  7  1  0  0  0  0
  6 14  1  0  0  0  0
  6 26  1  0  0  0  0
  6 27  1  0  0  0  0
  7 15  1  0  0  0  0
  7 28  1  0  0  0  0
  7 29  1  0  0  0  0
  8  9  1  0  0  0  0
  8 14  1  0  0  0  0
  8 30  1  0  0  0  0
  8 31  1  0  0  0  0
  9 15  1  0  0  0  0
 10 13  1  0  0  0  0
 10 32  1  0  0  0  0
 10 33  1  0  0  0  0
 10 34  1  0  0  0  0
 11 13  1  0  0  0  0
 11 35  1  0  0  0  0
 11 36  1  0  0  0  0
 11 37  1  0  0  0  0
 12 13  1  0  0  0  0
 12 38  1  0  0  0  0
 12 39  1  0  0  0  0
 12 40  1  0  0  0  0
 13 17  1  0  0  0  0
 14 41  1  0  0  0  0
M  END
$$$$
