29
0 1 C11H11N5OS
C                    -0.639249002131    -2.887669978462     4.961220043316
C                    -4.258743111810     1.314409985943     3.595395517091
C                     0.051000908916    -3.648711629221     3.981871107474
C                    -2.902309184444     0.040848861092     2.034709420694
C                    -3.907064738395     0.809497137914     1.465604260156
C                     0.110557412096    -3.459859437788     2.619560349678
C                     1.318211468022    -5.194063297200     3.178380834707
C                    -1.910167225489    -0.845985113114     1.429004443353
C                    -4.289427335951     0.918095636520     0.012866038984
C                     2.213465138493    -6.344978940848     2.893817678832
C                    -1.522990544094    -0.717329554658    -0.026222694036
N                    -1.191045527539    -2.271257782902     5.783738798315
N                    -4.662217414106     1.529237618652     2.370040636928
N                     0.839642252189    -4.771656897010     4.297383568231
N                    -1.359206995870    -1.698281437064     2.234311820702
N                    -0.394791123406    -2.536930878721     1.744332866860
O                     0.907135016501    -4.423899509763     2.084226664880
S                    -2.936739925028     0.213782110835     3.778020155312
H                    -4.718986873211     1.778925392792     4.461808971370
H                    -5.334461070414     1.228924037570    -0.047344320849
H                    -3.692240434211     1.676068281711    -0.508156497951
H                    -4.178458774330    -0.028946157469    -0.519532913671
H                     1.732449668709    -7.060249980281     2.218534804341
H                     3.144902491392    -6.012133365224     2.424168697403
H                     2.446696464484    -6.844091440428     3.834802626886
H                    -0.432867074747    -0.772992715887    -0.126889175511
H                    -1.961000416980    -1.517090710330    -0.637192455446
H                    -1.840916825531     0.234298041412    -0.445568349115
H                    -0.350848173748    -2.775068778143     0.755947981432
