40
0 1 C16H18N6
C                    -0.554286447062     4.589571569742     2.095474575206
C                    -7.197505552136     7.043161959131     2.066029673508
C                    -5.414232328254     8.456372923419     2.839755881927
C                    -6.286361494379     6.012235078375     1.834513834199
C                    -4.486980947012     7.440181759986     2.616438066549
C                    -6.782610653115     8.282530219139     2.573965737401
C                    -4.926297686520     6.208815389668     2.110170667738
C                    -2.326131088935     2.949740644904     1.359957623159
C                    -2.426353918819     0.878585408559     0.662805203953
C                    -1.929760334512     4.268436140737     1.851168893139
C                    -2.021732661961    -0.494169074248     0.238822025012
C                    -0.965466305102    -0.506672648010    -0.885562393119
C                     0.458098281194    -0.147859849232    -0.434448589634
C                     0.653428638873     1.267400560184     0.129679278229
C                    -0.129282368862     1.561587036473     1.414216686745
C                    -7.776132775028     9.385599516810     2.855366694310
N                     0.572631925559     4.833112786535     2.278448179340
N                    -3.583294641894     2.675467710314     1.009440137543
N                    -3.642626922106     1.378375143842     0.568060755227
N                    -2.756602086314     5.274314894485     2.076796731087
N                    -1.554400069104     1.818880341281     1.162878271298
N                    -4.042682051691     5.144510756893     1.859270596235
H                    -8.249366773306     6.877562952066     1.844497360249
H                    -5.064218270085     9.409872319827     3.229612068003
H                    -6.626588102531     5.058637360842     1.437246103237
H                    -3.433046113192     7.587791959285     2.823610187803
H                    -1.647796296009    -1.062137773808     1.101553723556
H                    -2.936375496558    -0.988649463449    -0.096606353450
H                    -0.944848100445    -1.513648280280    -1.317061306647
H                    -1.289387852120     0.169422360038    -1.686016262927
H                     0.782935712254    -0.874831510095     0.322995005349
H                     1.135066288762    -0.275225421818    -1.287055339520
H                     1.715581848780     1.407028026009     0.359698858392
H                     0.395265424940     2.023876369425    -0.620769239625
H                    -0.060119574191     0.717357183000     2.109420225661
H                     0.288680842505     2.426912264278     1.918412960038
H                    -8.103041061725     9.363957036744     3.902354029324
H                    -7.340525324345    10.372339396669     2.670307221782
H                    -8.669169235320     9.288210340928     2.231020433704
H                    -4.392259115320     4.248218930696     1.480084231424
