
  -OEChem-05262117483D

 40 43  0     0  0  0  0  0  0999 V2000
   -0.5243   -2.5511   -3.0445 C   0  0  0  0  0  0  0  0  0  0  0  0
   -2.9803   -8.2400    0.9617 C   0  0  0  0  0  0  0  0  0  0  0  0
   -2.2698   -7.6076    1.9882 C   0  0  0  0  0  0  0  0  0  0  0  0
   -3.1609   -7.5890   -0.2628 C   0  0  0  0  0  0  0  0  0  0  0  0
   -1.7544   -6.3240    1.8014 C   0  0  0  0  0  0  0  0  0  0  0  0
   -2.6383   -6.3096   -0.4650 C   0  0  0  0  0  0  0  0  0  0  0  0
   -1.8070   -1.9757   -3.2548 C   0  0  0  0  0  0  0  0  0  0  0  0
   -1.0540   -2.2223   -0.0466 C   0  0  0  0  0  0  0  0  0  0  0  0
   -2.6897   -2.3293   -4.3292 C   0  0  0  0  0  0  0  0  0  0  0  0
   -1.9504   -5.6790    0.5761 C   0  0  0  0  0  0  0  0  0  0  0  0
   -3.8419   -1.6002   -4.3421 C   0  0  0  0  0  0  0  0  0  0  0  0
    0.0949   -2.8378    0.5457 C   0  0  0  0  0  0  0  0  0  0  0  0
   -2.3378   -0.9596   -2.4532 C   0  0  0  0  0  0  0  0  0  0  0  0
   -1.9886   -3.2552   -0.1112 C   0  0  0  0  0  0  0  0  0  0  0  0
   -1.1491   -0.8204   -0.4312 C   0  0  0  0  0  0  0  0  0  0  0  0
   -2.6910   -3.3747   -5.4146 C   0  0  0  0  0  0  0  0  0  0  0  0
   -4.8157   -2.0432   -5.3999 C   0  0  0  0  0  0  0  0  0  0  0  0
   -3.9006   -2.9361   -6.2958 C   0  0  0  0  0  0  0  0  0  0  0  0
    1.4347   -2.2183    0.7830 C   0  0  0  0  0  0  0  0  0  0  0  0
    0.5282   -3.0263   -2.8715 N   0  0  0  0  0  0  0  0  0  0  0  0
   -0.1195   -4.1227    0.8007 N   0  0  0  0  0  0  0  0  0  0  0  0
   -1.7729   -0.2605   -1.4130 N   0  0  0  0  0  0  0  0  0  0  0  0
   -1.4043   -4.3765    0.3933 N   0  0  0  0  0  0  0  0  0  0  0  0
   -3.8971   -0.4264   -3.0621 S   0  0  0  0  0  0  0  0  0  0  0  0
   -3.6478   -3.1902   -0.5558 Cl  0  0  0  0  0  0  0  0  0  0  0  0
   -3.3830   -9.2379    1.1124 H   0  0  0  0  0  0  0  0  0  0  0  0
   -2.1191   -8.1126    2.9384 H   0  0  0  0  0  0  0  0  0  0  0  0
   -3.6950   -8.0824   -1.0700 H   0  0  0  0  0  0  0  0  0  0  0  0
   -1.1969   -5.8201    2.5837 H   0  0  0  0  0  0  0  0  0  0  0  0
   -2.7467   -5.8147   -1.4241 H   0  0  0  0  0  0  0  0  0  0  0  0
   -0.6061   -0.1305    0.2191 H   0  0  0  0  0  0  0  0  0  0  0  0
   -1.7554   -3.4099   -5.9814 H   0  0  0  0  0  0  0  0  0  0  0  0
   -2.8415   -4.3739   -4.9854 H   0  0  0  0  0  0  0  0  0  0  0  0
   -5.6395   -2.6194   -4.9583 H   0  0  0  0  0  0  0  0  0  0  0  0
   -5.2636   -1.2176   -5.9621 H   0  0  0  0  0  0  0  0  0  0  0  0
   -3.5312   -2.3342   -7.1311 H   0  0  0  0  0  0  0  0  0  0  0  0
   -4.4409   -3.7879   -6.7170 H   0  0  0  0  0  0  0  0  0  0  0  0
    1.3527   -1.2903    1.3592 H   0  0  0  0  0  0  0  0  0  0  0  0
    2.0727   -2.9160    1.3292 H   0  0  0  0  0  0  0  0  0  0  0  0
    1.9148   -1.9809   -0.1721 H   0  0  0  0  0  0  0  0  0  0  0  0
  1  7  1  0  0  0  0
  1 20  3  0  0  0  0
  2  3  1  0  0  0  0
  2  4  2  0  0  0  0
  2 26  1  0  0  0  0
  3  5  2  0  0  0  0
  3 27  1  0  0  0  0
  4  6  1  0  0  0  0
  4 28  1  0  0  0  0
  5 10  1  0  0  0  0
  5 29  1  0  0  0  0
  6 10  2  0  0  0  0
  6 30  1  0  0  0  0
  7  9  1  0  0  0  0
  7 13  2  0  0  0  0
  8 12  1  0  0  0  0
  8 14  2  0  0  0  0
  8 15  1  0  0  0  0
  9 11  2  0  0  0  0
  9 16  1  0  0  0  0
 10 23  1  0  0  0  0
 11 17  1  0  0  0  0
 11 24  1  0  0  0  0
 12 19  1  0  0  0  0
 12 21  2  0  0  0  0
 13 22  1  0  0  0  0
 13 24  1  0  0  0  0
 14 23  1  0  0  0  0
 14 25  1  0  0  0  0
 15 22  2  0  0  0  0
 15 31  1  0  0  0  0
 16 18  1  0  0  0  0
 16 32  1  0  0  0  0
 16 33  1  0  0  0  0
 17 18  1  0  0  0  0
 17 34  1  0  0  0  0
 17 35  1  0  0  0  0
 18 36  1  0  0  0  0
 18 37  1  0  0  0  0
 19 38  1  0  0  0  0
 19 39  1  0  0  0  0
 19 40  1  0  0  0  0
 21 23  1  0  0  0  0
M  END
$$$$
