
  -OEChem-05262117483D

 40 42  0     0  0  0  0  0  0999 V2000
    0.6177    3.3465    5.0190 C   0  0  0  0  0  0  0  0  0  0  0  0
    2.2711   -2.8196    5.5401 C   0  0  0  0  0  0  0  0  0  0  0  0
    3.7153   -1.4053    4.2323 C   0  0  0  0  0  0  0  0  0  0  0  0
    1.9124   -1.7315    6.3348 C   0  0  0  0  0  0  0  0  0  0  0  0
    3.3745   -0.3117    5.0292 C   0  0  0  0  0  0  0  0  0  0  0  0
    3.1623   -2.6727    4.4668 C   0  0  0  0  0  0  0  0  0  0  0  0
    2.4585   -0.4743    6.0723 C   0  0  0  0  0  0  0  0  0  0  0  0
    0.6372    0.9687    4.3158 C   0  0  0  0  0  0  0  0  0  0  0  0
    0.4176   -0.1578    2.4642 C   0  0  0  0  0  0  0  0  0  0  0  0
    1.0199    1.9945    5.3045 C   0  0  0  0  0  0  0  0  0  0  0  0
    0.5435   -0.5988    1.0441 C   0  0  0  0  0  0  0  0  0  0  0  0
    1.9999   -0.7759    0.5750 C   0  0  0  0  0  0  0  0  0  0  0  0
    2.7568    0.5394    0.3395 C   0  0  0  0  0  0  0  0  0  0  0  0
    3.0069    1.4049    1.5834 C   0  0  0  0  0  0  0  0  0  0  0  0
    1.7558    1.9885    2.2483 C   0  0  0  0  0  0  0  0  0  0  0  0
    3.4780   -3.8373    3.5591 C   0  0  0  0  0  0  0  0  0  0  0  0
    0.2988    4.4206    4.6933 N   0  0  0  0  0  0  0  0  0  0  0  0
   -0.0690   -0.1127    4.5892 N   0  0  0  0  0  0  0  0  0  0  0  0
   -0.1996   -0.8293    3.4206 N   0  0  0  0  0  0  0  0  0  0  0  0
    1.6063    1.8229    6.4602 N   0  0  0  0  0  0  0  0  0  0  0  0
    0.9630    0.9940    2.9746 N   0  0  0  0  0  0  0  0  0  0  0  0
    2.0759    0.6517    6.8800 N   0  0  0  0  0  0  0  0  0  0  0  0
    1.8225   -3.7908    5.7346 H   0  0  0  0  0  0  0  0  0  0  0  0
    4.4277   -1.2738    3.4207 H   0  0  0  0  0  0  0  0  0  0  0  0
    1.1740   -1.8376    7.1232 H   0  0  0  0  0  0  0  0  0  0  0  0
    3.8085    0.6670    4.8421 H   0  0  0  0  0  0  0  0  0  0  0  0
    0.0047   -1.5468    0.9732 H   0  0  0  0  0  0  0  0  0  0  0  0
    0.0303    0.1119    0.3819 H   0  0  0  0  0  0  0  0  0  0  0  0
    2.5375   -1.3935    1.3048 H   0  0  0  0  0  0  0  0  0  0  0  0
    1.9877   -1.3380   -0.3658 H   0  0  0  0  0  0  0  0  0  0  0  0
    3.7284    0.3058   -0.1119 H   0  0  0  0  0  0  0  0  0  0  0  0
    2.2118    1.1363   -0.4050 H   0  0  0  0  0  0  0  0  0  0  0  0
    3.5702    0.8362    2.3305 H   0  0  0  0  0  0  0  0  0  0  0  0
    3.6359    2.2545    1.2926 H   0  0  0  0  0  0  0  0  0  0  0  0
    2.0434    2.7579    2.9643 H   0  0  0  0  0  0  0  0  0  0  0  0
    1.1132    2.4731    1.5045 H   0  0  0  0  0  0  0  0  0  0  0  0
    2.6862   -3.9652    2.8109 H   0  0  0  0  0  0  0  0  0  0  0  0
    4.4197   -3.6863    3.0235 H   0  0  0  0  0  0  0  0  0  0  0  0
    3.5513   -4.7746    4.1187 H   0  0  0  0  0  0  0  0  0  0  0  0
    2.5189    0.7387    7.7866 H   0  0  0  0  0  0  0  0  0  0  0  0
  1 10  1  0  0  0  0
  1 17  3  0  0  0  0
  2  4  1  0  0  0  0
  2  6  2  0  0  0  0
  2 23  1  0  0  0  0
  3  5  2  0  0  0  0
  3  6  1  0  0  0  0
  3 24  1  0  0  0  0
  4  7  2  0  0  0  0
  4 25  1  0  0  0  0
  5  7  1  0  0  0  0
  5 26  1  0  0  0  0
  6 16  1  0  0  0  0
  7 22  1  0  0  0  0
  8 10  1  0  0  0  0
  8 18  2  0  0  0  0
  8 21  1  0  0  0  0
  9 11  1  0  0  0  0
  9 19  2  0  0  0  0
  9 21  1  0  0  0  0
 10 20  2  0  0  0  0
 11 12  1  0  0  0  0
 11 27  1  0  0  0  0
 11 28  1  0  0  0  0
 12 13  1  0  0  0  0
 12 29  1  0  0  0  0
 12 30  1  0  0  0  0
 13 14  1  0  0  0  0
 13 31  1  0  0  0  0
 13 32  1  0  0  0  0
 14 15  1  0  0  0  0
 14 33  1  0  0  0  0
 14 34  1  0  0  0  0
 15 21  1  0  0  0  0
 15 35  1  0  0  0  0
 15 36  1  0  0  0  0
 16 37  1  0  0  0  0
 16 38  1  0  0  0  0
 16 39  1  0  0  0  0
 18 19  1  0  0  0  0
 20 22  1  0  0  0  0
 22 40  1  0  0  0  0
M  END
$$$$
