
  -OEChem-05262117483D

 29 30  0     0  0  0  0  0  0999 V2000
    1.7005   -3.4024    1.8086 C   0  0  0  0  0  0  0  0  0  0  0  0
   -5.5235    2.1763    1.6486 C   0  0  0  0  0  0  0  0  0  0  0  0
    0.8053   -3.2622    2.8957 C   0  0  0  0  0  0  0  0  0  0  0  0
   -3.5218    0.7720    1.6879 C   0  0  0  0  0  0  0  0  0  0  0  0
   -4.2996    0.7560    2.8423 C   0  0  0  0  0  0  0  0  0  0  0  0
   -0.2662   -2.3924    2.9492 C   0  0  0  0  0  0  0  0  0  0  0  0
   -0.1432   -3.5405    4.7983 C   0  0  0  0  0  0  0  0  0  0  0  0
   -2.2880    0.0483    1.3950 C   0  0  0  0  0  0  0  0  0  0  0  0
   -4.0312   -0.0273    4.0926 C   0  0  0  0  0  0  0  0  0  0  0  0
   -0.6044   -3.9278    6.1560 C   0  0  0  0  0  0  0  0  0  0  0  0
   -1.5389    0.2806    0.1007 C   0  0  0  0  0  0  0  0  0  0  0  0
    2.3892   -3.4508    0.8657 N   0  0  0  0  0  0  0  0  0  0  0  0
   -5.4203    1.5568    2.7923 N   0  0  0  0  0  0  0  0  0  0  0  0
    0.8502   -3.9788    4.1013 N   0  0  0  0  0  0  0  0  0  0  0  0
   -1.8786   -0.7918    2.2981 N   0  0  0  0  0  0  0  0  0  0  0  0
   -0.7246   -1.4726    2.0565 N   0  0  0  0  0  0  0  0  0  0  0  0
   -0.8830   -2.5484    4.1419 O   0  0  0  0  0  0  0  0  0  0  0  0
   -4.2556    1.8445    0.5121 S   0  0  0  0  0  0  0  0  0  0  0  0
   -6.3305    2.8561    1.3968 H   0  0  0  0  0  0  0  0  0  0  0  0
   -3.0343    0.1867    4.4882 H   0  0  0  0  0  0  0  0  0  0  0  0
   -4.7882    0.2247    4.8376 H   0  0  0  0  0  0  0  0  0  0  0  0
   -4.0528   -1.1036    3.8962 H   0  0  0  0  0  0  0  0  0  0  0  0
   -0.5906   -3.0684    6.8342 H   0  0  0  0  0  0  0  0  0  0  0  0
   -1.6280   -4.3151    6.1255 H   0  0  0  0  0  0  0  0  0  0  0  0
    0.0601   -4.7009    6.5429 H   0  0  0  0  0  0  0  0  0  0  0  0
   -0.5103    0.6040    0.3021 H   0  0  0  0  0  0  0  0  0  0  0  0
   -1.4938   -0.6379   -0.4980 H   0  0  0  0  0  0  0  0  0  0  0  0
   -2.0000    1.0476   -0.5205 H   0  0  0  0  0  0  0  0  0  0  0  0
   -0.2318   -1.4206    1.1680 H   0  0  0  0  0  0  0  0  0  0  0  0
  1  3  1  0  0  0  0
  1 12  3  0  0  0  0
  2 13  2  0  0  0  0
  2 18  1  0  0  0  0
  2 19  1  0  0  0  0
  3  6  2  0  0  0  0
  3 14  1  0  0  0  0
  4  5  2  0  0  0  0
  4  8  1  0  0  0  0
  4 18  1  0  0  0  0
  5  9  1  0  0  0  0
  5 13  1  0  0  0  0
  6 16  1  0  0  0  0
  6 17  1  0  0  0  0
  7 10  1  0  0  0  0
  7 14  2  0  0  0  0
  7 17  1  0  0  0  0
  8 11  1  0  0  0  0
  8 15  2  0  0  0  0
  9 20  1  0  0  0  0
  9 21  1  0  0  0  0
  9 22  1  0  0  0  0
 10 23  1  0  0  0  0
 10 24  1  0  0  0  0
 10 25  1  0  0  0  0
 11 26  1  0  0  0  0
 11 27  1  0  0  0  0
 11 28  1  0  0  0  0
 15 16  1  0  0  0  0
 16 29  1  0  0  0  0
M  END
$$$$
