40
0 1 C19ClH15N4S
C                     1.758317120792     0.633212339016     2.105401611589
C                    -4.164106546441    -8.442036015211    -0.481024735677
C                    -2.900704660932    -8.196379116179    -1.030579682296
C                    -4.758834176472    -7.486255886192     0.348343223461
C                    -2.238555261004    -6.996342809621    -0.767729461140
C                    -4.099600326012    -6.286982542045     0.629528641200
C                     0.986793432592    -0.250471744886     2.912994828108
C                    -1.521912636575    -2.711982456589     0.625124246358
C                     1.402288635533    -0.760581033747     4.186536891997
C                    -2.847709679992    -6.043983160381     0.056240625860
C                     0.488970770712    -1.601479034041     4.752807737060
C                    -0.421562103242    -3.617293462747     0.796445352437
C                    -0.244035806981    -0.764086822184     2.510435600212
C                    -2.589056749594    -3.543662528546     0.295589161030
C                    -1.551563901510    -1.251282102811     0.609797956686
C                     2.559923332186    -0.505860006443     5.117246160555
C                     0.851648579294    -2.018268985447     6.152572784685
C                     2.354107047614    -1.599417063289     6.209141611543
C                     1.014849535160    -3.305155644439     1.078532789775
N                     2.419870148587     1.350125764590     1.465075855545
N                    -0.807123481785    -4.874655155529     0.605664601119
N                    -0.915721874555    -0.421102343498     1.361978471550
N                    -2.149833330486    -4.830509790295     0.324653668981
S                    -0.910570006319    -1.839503583705     3.751697436200
Cl                   -4.191000221305    -3.084746155260    -0.140276835055
H                    -4.678322165789    -9.375564258396    -0.692198791337
H                    -2.430533662060    -8.938339562781    -1.670013081518
H                    -5.732017356418    -7.677424058730     0.791828974496
H                    -1.257740054488    -6.790213834236    -1.182460251725
H                    -4.546935931215    -5.558630173171     1.297152617502
H                    -2.168508708640    -0.797877279510    -0.169255542214
H                     3.534765048762    -0.585846300734     4.626343496141
H                     2.495743439467     0.506065083779     5.536761020047
H                     0.249309221931    -1.471593905877     6.890016767295
H                     0.712264566737    -3.086393949593     6.346860562715
H                     2.971584566859    -2.468654588172     5.963827365338
H                     2.648503310916    -1.255894649509     7.204072429650
H                     1.179980146308    -3.110728481132     2.142215120733
H                     1.634924436075    -4.154530592679     0.783383782473
H                     1.338951208809    -2.417711132026     0.528543716756
