26
0 1 C11ClH10IN2O
C                     1.745204098928    -0.905578124230    -0.596031596762
C                    -0.730626153388    -6.247772749154     1.149072291877
C                    -2.098065945423    -6.259672267130     1.443196261754
C                    -2.209094288194    -3.876007216774     0.886529226342
C                    -0.831946105216    -3.866730131717     0.581919509492
C                    -0.115809300116    -5.077152948645     0.708979043022
C                    -2.801821670702    -5.061692433173     1.319700768489
C                    -0.649803764396    -1.466867596662    -0.090725067347
C                     0.284660662068     0.815480544635     0.387742795175
C                    -0.040315588049     0.025913786839    -2.010649754381
C                     0.365389344359    -0.391732939513    -0.576140661513
N                     2.825973853066    -1.336674651406    -0.609224984769
N                    -0.139516317443    -2.711797953663     0.170137289033
O                    -1.828569724178    -1.154309156556     0.020989512430
Cl                    1.595157165576    -5.125349837482     0.304864161128
I                    -5.062589510256    -5.208187153372     1.109629401717
H                    -0.141942430909    -7.153887379699     1.251594962962
H                    -2.580682054559    -7.174187157261     1.769722075039
H                    -2.771501806237    -2.960055187174     0.772105216912
H                    -0.745285013011     1.176009708529     0.410853339826
H                     0.583035512478     0.533408972031     1.400864259819
H                     0.942185714646     1.616060162824     0.039486404403
H                    -1.071011377117     0.385485425738    -1.992000178908
H                     0.028900574144    -0.817208583400    -2.703075795580
H                     0.615507672954     0.824595198747    -2.366413857414
H                     0.858206259707    -2.840662976334     0.027126496961
