
  -OEChem-05262117483D

 19 19  0     0  0  0  0  0  0999 V2000
   -0.3302    0.0686   -0.2161 C   0  0  0  0  0  0  0  0  0  0  0  0
    1.8300   -1.0941   -0.0710 C   0  0  0  0  0  0  0  0  0  0  0  0
    0.6673   -0.4561    1.9686 C   0  0  0  0  0  0  0  0  0  0  0  0
    0.7341   -0.4977    0.5642 C   0  0  0  0  0  0  0  0  0  0  0  0
    2.8596   -1.6135    0.7077 C   0  0  0  0  0  0  0  0  0  0  0  0
    2.8242   -1.6114    2.1127 C   0  0  0  0  0  0  0  0  0  0  0  0
    1.6963   -1.0159    2.7060 C   0  0  0  0  0  0  0  0  0  0  0  0
    4.6691   -1.4040    3.5987 C   0  0  0  0  0  0  0  0  0  0  0  0
   -1.1952    0.5311   -0.8442 N   0  0  0  0  0  0  0  0  0  0  0  0
    4.0312   -2.1680    0.0082 N   0  3  0  0  0  0  0  0  0  0  0  0
    5.1430   -1.9181    0.4782 O   0  5  0  0  0  0  0  0  0  0  0  0
    3.8153   -2.8143   -1.0198 O   0  0  0  0  0  0  0  0  0  0  0  0
    3.7580   -2.2473    2.8537 O   0  0  0  0  0  0  0  0  0  0  0  0
    1.6193   -1.0106    4.0514 F   0  0  0  0  0  0  0  0  0  0  0  0
    1.8930   -1.1466   -1.1518 H   0  0  0  0  0  0  0  0  0  0  0  0
   -0.1808   -0.0126    2.4797 H   0  0  0  0  0  0  0  0  0  0  0  0
    5.3069   -2.0891    4.1563 H   0  0  0  0  0  0  0  0  0  0  0  0
    4.1208   -0.7585    4.2904 H   0  0  0  0  0  0  0  0  0  0  0  0
    5.2712   -0.8140    2.9031 H   0  0  0  0  0  0  0  0  0  0  0  0
  1  4  1  0  0  0  0
  1  9  3  0  0  0  0
  2  4  1  0  0  0  0
  2  5  2  0  0  0  0
  2 15  1  0  0  0  0
  3  4  2  0  0  0  0
  3  7  1  0  0  0  0
  3 16  1  0  0  0  0
  5  6  1  0  0  0  0
  5 10  1  0  0  0  0
  6  7  2  0  0  0  0
  6 13  1  0  0  0  0
  7 14  1  0  0  0  0
  8 13  1  0  0  0  0
  8 17  1  0  0  0  0
  8 18  1  0  0  0  0
  8 19  1  0  0  0  0
 10 11  1  0  0  0  0
 10 12  2  0  0  0  0
M  CHG  2  10   1  11  -1
M  END
$$$$
