
  -OEChem-05262117483D

 41 42  0     0  0  0  0  0  0999 V2000
    0.1389   -1.0869    1.0184 C   0  0  0  0  0  0  0  0  0  0  0  0
    0.0046    0.8994   -2.9832 C   0  0  0  0  0  0  0  0  0  0  0  0
    0.3035    2.3105   -2.4073 C   0  0  0  0  0  0  0  0  0  0  0  0
    0.0424   -0.0681   -1.7808 C   0  0  0  0  0  0  0  0  0  0  0  0
    0.4864    2.1122   -0.8895 C   0  0  0  0  0  0  0  0  0  0  0  0
   -1.5804    1.4927    1.9597 C   0  0  0  0  0  0  0  0  0  0  0  0
   -0.0788    1.2110    1.8652 C   0  0  0  0  0  0  0  0  0  0  0  0
   -1.7947    1.0649   -0.4256 C   0  0  0  0  0  0  0  0  0  0  0  0
   -0.2787    0.8072   -0.5520 C   0  0  0  0  0  0  0  0  0  0  0  0
    1.5479   -3.5058    2.1829 C   0  0  0  0  0  0  0  0  0  0  0  0
    0.7134   -2.5036    4.3347 C   0  0  0  0  0  0  0  0  0  0  0  0
   -0.9484   -3.3822    2.6629 C   0  0  0  0  0  0  0  0  0  0  0  0
    0.4177   -2.7137    2.8472 C   0  0  0  0  0  0  0  0  0  0  0  0
   -2.0600    2.0059    0.6715 N   0  0  0  0  0  0  0  0  0  0  0  0
    0.1823    0.2686    0.7600 N   0  0  0  0  0  0  0  0  0  0  0  0
   -0.0580   -1.9663    0.1890 O   0  0  0  0  0  0  0  0  0  0  0  0
    0.3870   -1.3346    2.3366 O   0  0  0  0  0  0  0  0  0  0  0  0
   -0.9780    0.8788   -3.4656 H   0  0  0  0  0  0  0  0  0  0  0  0
    0.7300    0.6018   -3.7460 H   0  0  0  0  0  0  0  0  0  0  0  0
    1.1935    2.7615   -2.8556 H   0  0  0  0  0  0  0  0  0  0  0  0
   -0.5269    2.9952   -2.6063 H   0  0  0  0  0  0  0  0  0  0  0  0
   -0.6378   -0.9115   -1.8889 H   0  0  0  0  0  0  0  0  0  0  0  0
    1.0452   -0.4852   -1.6551 H   0  0  0  0  0  0  0  0  0  0  0  0
    1.5423    1.9533   -0.6433 H   0  0  0  0  0  0  0  0  0  0  0  0
    0.1261    2.9704   -0.3211 H   0  0  0  0  0  0  0  0  0  0  0  0
   -2.0883    0.5583    2.2632 H   0  0  0  0  0  0  0  0  0  0  0  0
   -1.7679    2.2458    2.7333 H   0  0  0  0  0  0  0  0  0  0  0  0
    0.4629    2.1377    1.6672 H   0  0  0  0  0  0  0  0  0  0  0  0
    0.2950    0.7916    2.7949 H   0  0  0  0  0  0  0  0  0  0  0  0
   -2.1825    1.5003   -1.3516 H   0  0  0  0  0  0  0  0  0  0  0  0
   -2.2865    0.0869   -0.2803 H   0  0  0  0  0  0  0  0  0  0  0  0
    1.3451   -3.6723    1.1251 H   0  0  0  0  0  0  0  0  0  0  0  0
    2.4957   -2.9670    2.2826 H   0  0  0  0  0  0  0  0  0  0  0  0
    1.6536   -4.4756    2.6807 H   0  0  0  0  0  0  0  0  0  0  0  0
   -0.0730   -1.9036    4.8028 H   0  0  0  0  0  0  0  0  0  0  0  0
    1.6686   -1.9868    4.4677 H   0  0  0  0  0  0  0  0  0  0  0  0
    0.7658   -3.4683    4.8481 H   0  0  0  0  0  0  0  0  0  0  0  0
   -1.7364   -2.7572    3.0962 H   0  0  0  0  0  0  0  0  0  0  0  0
   -1.1684   -3.5498    1.6086 H   0  0  0  0  0  0  0  0  0  0  0  0
   -0.9549   -4.3458    3.1832 H   0  0  0  0  0  0  0  0  0  0  0  0
   -3.0583    2.1923    0.7254 H   0  0  0  0  0  0  0  0  0  0  0  0
  1 15  1  0  0  0  0
  1 16  2  0  0  0  0
  1 17  1  0  0  0  0
  2  3  1  0  0  0  0
  2  4  1  0  0  0  0
  2 18  1  0  0  0  0
  2 19  1  0  0  0  0
  3  5  1  0  0  0  0
  3 20  1  0  0  0  0
  3 21  1  0  0  0  0
  4  9  1  0  0  0  0
  4 22  1  0  0  0  0
  4 23  1  0  0  0  0
  5  9  1  0  0  0  0
  5 24  1  0  0  0  0
  5 25  1  0  0  0  0
  6  7  1  0  0  0  0
  6 14  1  0  0  0  0
  6 26  1  0  0  0  0
  6 27  1  0  0  0  0
  7 15  1  0  0  0  0
  7 28  1  0  0  0  0
  7 29  1  0  0  0  0
  8  9  1  0  0  0  0
  8 14  1  0  0  0  0
  8 30  1  0  0  0  0
  8 31  1  0  0  0  0
  9 15  1  0  0  0  0
 10 13  1  0  0  0  0
 10 32  1  0  0  0  0
 10 33  1  0  0  0  0
 10 34  1  0  0  0  0
 11 13  1  0  0  0  0
 11 35  1  0  0  0  0
 11 36  1  0  0  0  0
 11 37  1  0  0  0  0
 12 13  1  0  0  0  0
 12 38  1  0  0  0  0
 12 39  1  0  0  0  0
 12 40  1  0  0  0  0
 13 17  1  0  0  0  0
 14 41  1  0  0  0  0
M  END
$$$$
