20   
torsion grid (-165,)
C        1.8886987023   -1.0463287249   -0.1761392064
C        2.6734671654   -1.7826697125    1.9778525320
C        0.7049818412   -0.5976924802    0.4057522531
C        1.5004531255   -1.3337311624    2.5757065441
C        2.8958932734   -1.6434553152    0.5961027425
C        0.4985820713   -0.7151343142    1.7937829018
C        3.9957489752   -3.6582140010   -0.4738812705
C        4.1513635123   -2.1870132687   -0.0446591218
N       -0.7255548891   -0.2212362178    2.2703914461
O       -2.3821001015    0.5115570359    4.0322179964
S       -0.9933287135    0.0485181835    3.7816214613
H        2.0309266322   -0.9350993593   -1.2488686285
H        3.4335599392   -2.2600840974    2.5927500189
H       -0.0762187698   -0.1366123157   -0.1908926962
H        1.3565005338   -1.4806749893    3.6428558293
H        3.7647149118   -4.2943702775    0.3867653189
H        4.9172499416   -4.0285640415   -0.9354315103
H        3.1816390119   -3.7695557810   -1.1973510492
H        4.4089565285   -1.5799915173   -0.9195360189
H        4.9891516044   -2.1011896789    0.6563724072
20   
torsion grid (-150,)
C        1.8694563265   -1.0571848924   -0.1705815262
C        2.6376075623   -1.8071828374    1.9842353834
C        0.6690374229   -0.6376955109    0.3971528124
C        1.4482277760   -1.3821031636    2.5713789285
C        2.8772347073   -1.6459135468    0.6098309910
C        0.4514000699   -0.7696064881    1.7819115701
C        4.0172292993   -3.6319540175   -0.4733970848
C        4.1478115006   -2.1650999909   -0.0220888630
N       -0.7832579063   -0.3063226193    2.2697099472
O       -2.2879240800    0.6061800983    4.0889737218
S       -0.8955020991    0.2483186466    3.7226438303
H        2.0246585726   -0.9328186763   -1.2401282613
H        3.3930626609   -2.2862669565    2.6035076005
H       -0.1114840433   -0.1863653444   -0.2078941960
H        1.2778799117   -1.5577479098    3.6303375945
H        3.7836356936   -4.2827039906    0.3755875162
H        4.9490845773   -3.9842791068   -0.9283117448
H        3.2136294553   -3.7440288356   -1.2084720729
H        4.4088462090   -1.5428137770   -0.8852310130
H        4.9754163737   -2.0778213758    0.6907841659
20   
torsion grid (-135,)
C        1.8471372696   -1.0805824061   -0.1576930254
C        2.6041410273   -1.8303907733    1.9999756768
C        0.6310692981   -0.6873611553    0.3942650178
C        1.3981921654   -1.4277661131    2.5747219804
C        2.8567315787   -1.6572886357    0.6316644260
C        0.4001072931   -0.8392380612    1.7737838293
C        4.0386492310   -3.6014691075   -0.4841277132
C        4.1443924380   -2.1465282837    0.0094822561
N       -0.8454008123   -0.4039960531    2.2763350127
O       -2.2146266826    0.7525429840    4.0683808624
S       -0.8488534356    0.4317019854    3.5921606788
H        2.0159212375   -0.9418145930   -1.2234548637
H        3.3613661354   -2.2951275910    2.6278825105
H       -0.1478549648   -0.2460552875   -0.2203333858
H        1.2117984681   -1.6072716411    3.6303532893
H        3.7975732296   -4.2775652011    0.3426839612
H        4.9820546909   -3.9312783955   -0.9321781291
H        3.2491718093   -3.7023988563   -1.2360121435
H        4.4148136922   -1.4980403619   -0.8313723886
H        4.9577507631   -2.0697955592    0.7396755586
20   
torsion grid (-120,)
C        1.8263369282   -1.0919657734   -0.1155161659
C        2.6068514351   -1.8697260340    2.0229259111
C        0.6070149537   -0.7247386506    0.4493964136
C        1.3967464757   -1.4914393480    2.6097530105
C        2.8472684507   -1.6719275263    0.6569556584
C        0.3840599850   -0.9170798491    1.8232343158
C        4.0501688925   -3.5748450780   -0.5074464940
C        4.1387305563   -2.1301432209    0.0180293996
N       -0.8672621967   -0.5233192137    2.3674089111
O       -2.1595765858    0.8583352010    4.0567758000
S       -0.8275735521    0.5544375483    3.4888762038
H        1.9896471383   -0.9248880683   -1.1781721519
H        3.3770760070   -2.3247259895    2.6421877722
H       -0.1787480494   -0.2817742123   -0.1554115840
H        1.2190331770   -1.6732180351    3.6664288412
H        3.8205856479   -4.2719598958    0.3050814013
H        4.9959781385   -3.8829381696   -0.9659619816
H        3.2592237578   -3.6695190310   -1.2586689809
H        4.3973885523   -1.4595662420   -0.8091928328
H        4.9544315315   -2.0589215912    0.7461973631
20   
torsion grid (-105,)
C        1.8232746668   -1.0896325953   -0.0873211179
C        2.6213993102   -1.9044053109    2.0288200092
C        0.6080374664   -0.7301818077    0.4952999852
C        1.4147044415   -1.5413667508    2.6326810879
C        2.8499316088   -1.6835616906    0.6643047475
C        0.3987032266   -0.9555153055    1.8639623377
C        4.0531762911   -3.5639828771   -0.5357137251
C        4.1382717369   -2.1259183704    0.0075663055
N       -0.8572551663   -0.6061648808    2.4461119948
O       -2.1790616617    0.9740283096    3.9225951056
S       -0.8632504535    0.6774600541    3.3186978083
H        1.9777137227   -0.9001524787   -1.1475498006
H        3.3999485386   -2.3618216669    2.6357533544
H       -0.1819325552   -0.2770889224   -0.0968818735
H        1.2468321928   -1.7291696196    3.6897447410
H        3.8345683712   -4.2728235660    0.2697097898
H        4.9964136557   -3.8611459537   -1.0066640375
H        3.2558667361   -3.6533171640   -1.2808849816
H        4.3860304874   -1.4429481189   -0.8128483262
H        4.9602165652   -2.0594278312    0.7292023102
20   
torsion grid (-90,)
C        1.6520914863   -1.3097390961   -0.0966509341
C        2.7737535173   -1.7008223447    1.9915696266
C        0.4779507087   -0.9796349360    0.5842384858
C        1.6094141084   -1.3758305697    2.6900276699
C        2.8191263052   -1.6735579054    0.5897815492
C        0.4561848244   -1.0038487433    1.9852312193
C        4.1139198202   -3.5951795409   -0.4381050161
C        4.0691382861   -2.0821596752   -0.1572148275
N       -0.7581460826   -0.7336967373    2.6923412668
O       -2.2753311397    0.9821414922    3.7777047457
S       -1.0085576201    0.7539922856    3.0526001805
H        1.6580319119   -1.2792035505   -1.1842095963
H        3.6651553728   -1.9778081140    2.5505761249
H       -0.4227223392   -0.7106361529    0.0393289174
H        1.5841407367   -1.4114828556    3.7756041833
H        4.0864445021   -4.1664980139    0.4956120168
H        5.0273476442   -3.8664949818   -0.9783664622
H        3.2544903466   -3.9054906708   -1.0414759393
H        4.1255879482   -1.5359348215   -1.1054811058
H        4.9539379168   -1.7950396390    0.4221168081
20   
torsion grid (-75,)
C        1.6610488727   -1.2886809495   -0.0643254155
C        2.8107498131   -1.7125844934    2.0050501328
C        0.5029027145   -0.9499646451    0.6403838870
C        1.6607454070   -1.3899788827    2.7243927593
C        2.8335695114   -1.6687343210    0.6013685802
C        0.5036264247   -0.9832764266    2.0426104836
C        4.0882785060   -3.5970116113   -0.4620216600
C        4.0666571943   -2.0858212153   -0.1681940560
N       -0.6847519256   -0.7260226361    2.7888379509
O       -2.3893172186    0.9608001697    3.6109374122
S       -1.1280452401    0.7607896543    2.8662927256
H        1.6476581424   -1.2562267072   -1.1517708336
H        3.7075042764   -2.0081575059    2.5457102240
H       -0.4058134264   -0.6773303989    0.1104432772
H        1.6484353688   -1.4411582382    3.8093382678
H        4.0682882922   -4.1758303168    0.4672418341
H        4.9898415429   -3.8747539942   -1.0186284887
H        3.2158736602   -3.8916846301   -1.0544856042
H        4.1152429000   -1.5322747630   -1.1126129194
H        4.9635835415   -1.8146443567    0.4000234890
20   
torsion grid (-60,)
C        1.6574574984   -1.2705127280   -0.0268093279
C        2.8315507451   -1.7278061719    2.0224351706
C        0.5117481171   -0.9315604742    0.6965803166
C        1.6937895510   -1.4093565416    2.7598244591
C        2.8370117041   -1.6643004937    0.6183023443
C        0.5292392166   -0.9785062616    2.1011576412
C        4.0634370575   -3.5928466673   -0.4764390368
C        4.0556229918   -2.0833291572   -0.1723405781
N       -0.6225599944   -0.7080447405    2.8836350053
O       -2.4975323500    0.8778840341    3.5149056571
S       -1.2589174308    0.7038708686    2.7237340079
H        1.6281023462   -1.2333631939   -1.1137509303
H        3.7325057839   -2.0398632924    2.5464965770
H       -0.4040433450   -0.6610226084    0.1775865295
H        1.6927520197   -1.4740973606    3.8439316180
H        4.0530839136   -4.1778666992    0.4490447274
H        4.9553387377   -3.8720456435   -1.0475878177
H        3.1809926667   -3.8780016265   -1.0585588914
H        4.0933079337   -1.5238212382   -1.1136904442
H        4.9624066712   -1.8216600356    0.3845218728
20   
torsion grid (-45,)
C        1.6784072610   -1.2488835327   -0.0097381901
C        2.8663984525   -1.7253395667    2.0296390596
C        0.5459433057   -0.8910543288    0.7219040942
C        1.7406979809   -1.3870729646    2.7755752195
C        2.8588895974   -1.6602130102    0.6259265405
C        0.5744221196   -0.9364137437    2.1296919397
C        4.0377355098   -3.6069893289   -0.4882831465
C        4.0618300555   -2.0989206266   -0.1770031121
N       -0.5316575599   -0.6131532390    2.9437209697
O       -2.5397076607    0.8431182850    3.4638542370
S       -1.3493565269    0.6689916640    2.5984452914
H        1.6396275362   -1.2177280012   -1.0965882357
H        3.7663521160   -2.0541492706    2.5450079249
H       -0.3697873566   -0.6159484777    0.2051085340
H        1.7469761892   -1.4459100758    3.8598612618
H        4.0236170910   -4.1960780863    0.4345072065
H        4.9196515154   -3.9000191954   -1.0678377777
H        3.1455700348   -3.8723544597   -1.0648717823
H        4.1022609675   -1.5356480991   -1.1159888502
H        4.9778909893   -1.8578105322    0.3737809121
20   
torsion grid (-30,)
C        1.7021914877   -1.2219308363   -0.0090168318
C        2.8820826473   -1.7089072115    2.0322867109
C        0.5770076730   -0.8401238790    0.7174133417
C        1.7622055710   -1.3421832756    2.7743620498
C        2.8764469431   -1.6536871981    0.6294554067
C        0.5997979120   -0.8795131657    2.1283390109
C        4.0050545041   -3.6274023843   -0.4871700476
C        4.0686685529   -2.1209177414   -0.1726378235
N       -0.4724207947   -0.5126145750    2.9600345653
O       -2.5991531202    0.7585021269    3.4750872125
S       -1.4908303057    0.5771523777    2.5052886411
H        1.6660662311   -1.1959064467   -1.0960988869
H        3.7752662685   -2.0509303171    2.5506703949
H       -0.3278199177   -0.5473095635    0.1913358553
H        1.7664910063   -1.3877711517    3.8592096766
H        3.9751247609   -4.2176636064    0.4344337261
H        4.8793736456   -3.9418137472   -1.0669322270
H        3.1067331355   -3.8682582623   -1.0649481754
H        4.1247087481   -1.5571953037   -1.1105750123
H        4.9898250329   -1.9051639562    0.3799771240
20   
torsion grid (-15,)
C        1.7293644591   -1.2008244877   -0.0170451330
C        2.8961863626   -1.6925599673    2.0320253248
C        0.6108194225   -0.7910131927    0.7009620973
C        1.7814242108   -1.2920757776    2.7655111756
C        2.8935995517   -1.6528497354    0.6300095125
C        0.6249501712   -0.8217088631    2.1140822624
C        3.9810380809   -3.6491533730   -0.4860871251
C        4.0791840262   -2.1455620681   -0.1659845100
N       -0.4257654363   -0.4239425310    2.9547758963
O       -2.6325424523    0.6651348482    3.5258609563
S       -1.6334585928    0.4235603550    2.4536932477
H        1.7010198848   -1.1762477938   -1.1044222251
H        3.7818701270   -2.0439414130    2.5568850073
H       -0.2767436326   -0.4667906109    0.1641041779
H        1.7815239590   -1.3207629351    3.8508736449
H        3.9320156364   -4.2414269138    0.4333600553
H        4.8510038085   -3.9820055749   -1.0620323174
H        3.0807237601   -3.8667681666   -1.0699185441
H        4.1546126497   -1.5804691495   -1.1017570765
H        5.0015658891   -1.9539773923    0.3932667698
20   
torsion grid (0,)
C        1.7708706911   -1.1821783190   -0.0297819634
C        2.9249698063   -1.6821315709    2.0241880546
C        0.6590330466   -0.7467231894    0.6820763536
C        1.8184347179   -1.2496031781    2.7524926247
C        2.9237875837   -1.6574411907    0.6224120284
C        0.6665853932   -0.7754537584    2.0959091922
C        3.9664809937   -3.6786738035   -0.4876456476
C        4.1005789834   -2.1775082851   -0.1687708841
N       -0.3790337604   -0.3674421166    2.9369333138
O       -2.6579480033    0.5446421668    3.5286573381
S       -1.7368455485    0.1916512408    2.4176611749
H        1.7504209910   -1.1517566328   -1.1171516044
H        3.8045953919   -2.0417792227    2.5535008068
H       -0.2094986143   -0.3831154863    0.1394068181
H        1.8174717373   -1.2641460382    3.8381288046
H        3.9001445697   -4.2684201260    0.4323287664
H        4.8295757679   -4.0334183941   -1.0607840631
H        3.0627107593   -3.8746074158   -1.0738417963
H        4.1924799492   -1.6155500841   -1.1049415683
H        5.0253274482   -2.0075740380    0.3934355002
20   
torsion grid (15,)
C        1.8098857742   -1.1739011899   -0.0409928538
C        2.9591342086   -1.6734665750    2.0173270423
C        0.7065763506   -0.7137958754    0.6697307814
C        1.8639712133   -1.2103637545    2.7436885805
C        2.9528282022   -1.6662844645    0.6148941233
C        0.7141286691   -0.7366685862    2.0831741378
C        3.9541826578   -3.7047487521   -0.5020520396
C        4.1215449625   -2.2091174392   -0.1731462666
N       -0.3321907456   -0.3120909927    2.9158784796
O       -2.6848319242    0.4273006403    3.4647462888
S       -1.7803887579   -0.0681268047    2.3958058830
H        1.7933582018   -1.1401836993   -1.1283467096
H        3.8359704849   -2.0378203001    2.5481247021
H       -0.1465791355   -0.3141620745    0.1279933433
H        1.8683749712   -1.2084850533    3.8294183900
H        3.8695227755   -4.2984779828    0.4138749354
H        4.8117408071   -4.0759652630   -1.0731292366
H        3.0492126555   -3.8761577749   -1.0940749597
H        4.2319644766   -1.6439092371   -1.1053829069
H        5.0470292938   -2.0643287358    0.3947942539
20   
torsion grid (30,)
C        1.7923978257   -1.1140589749   -0.0261334255
C        2.9272059873   -1.6551368250    2.0273132872
C        0.7000518240   -0.6305349363    0.6898392270
C        1.8488193430   -1.1651764872    2.7596511093
C        2.9200266708   -1.6427251956    0.6234756792
C        0.7077434376   -0.6684606989    2.1009608218
C        3.8954209495   -3.7100130043   -0.4637072576
C        4.0765848679   -2.2095639759   -0.1662959580
N       -0.3379479068   -0.2128677457    2.9221578611
O       -2.7626818818    0.3340150994    3.3974422144
S       -1.8151478475   -0.2667654101    2.4263873497
H        1.7783121251   -1.0642535512   -1.1128182933
H        3.7963799187   -2.0424505098    2.5545129252
H       -0.1365950113   -0.1857840599    0.1575178273
H        1.8593533933   -1.1653923526    3.8453895338
H        3.8158784719   -4.2852121098    0.4644912707
H        4.7443743870   -4.0990662168   -1.0358556213
H        2.9830493193   -3.8860496191   -1.0429008552
H        4.1811233010   -1.6635687499   -1.1104502272
H        5.0094897674   -2.0604174366    0.3884937156
20   
torsion grid (45,)
C        1.8122888341   -1.0742200453   -0.0274404779
C        2.9301228901   -1.6482359853    2.0255096550
C        0.7299752842   -0.5691215905    0.6933926034
C        1.8663314163   -1.1347688743    2.7621523872
C        2.9244178055   -1.6312002777    0.6203443476
C        0.7370806311   -0.6162441217    2.1013876571
C        3.8696661356   -3.7226084738   -0.4492875997
C        4.0704478362   -2.2217773026   -0.1681255417
N       -0.3023483454   -0.1028020443    2.9051230377
O       -2.7691536835    0.2558474401    3.3627055112
S       -1.7736691659   -0.4232126793    2.5000107945
H        1.7988775533   -1.0178706337   -1.1137985735
H        3.7905146764   -2.0572417761    2.5508350794
H       -0.0971708524   -0.0969952994    0.1697956750
H        1.8821518963   -1.1344276031    3.8479167244
H        3.7857162639   -4.2872979616    0.4850395622
H        4.7117436907   -4.1287758952   -1.0198023783
H        2.9531805899   -3.8928664918   -1.0237227946
H        4.1786088148   -1.6867101744   -1.1180632341
H        5.0075562859   -2.0787888881    0.3814238411
20   
torsion grid (60,)
C        1.8280533007   -1.0488488945   -0.0441494632
C        2.9094122872   -1.6420370213    2.0209284929
C        0.7429647074   -0.5285248958    0.6648662547
C        1.8442191987   -1.1123038438    2.7453266675
C        2.9228382576   -1.6224394141    0.6155213105
C        0.7333975914   -0.5787302191    2.0690863760
C        3.8487418857   -3.7314494786   -0.4384452769
C        4.0685437974   -2.2332216031   -0.1588040406
N       -0.3088241844   -0.0050112441    2.8408411964
O       -2.7819600543    0.1463259951    3.3792111101
S       -1.7431067458   -0.5581245540    2.5950290339
H        1.8254297291   -0.9948960157   -1.1307112515
H        3.7556656514   -2.0665615598    2.5569832748
H       -0.0778519996   -0.0499992991    0.1372186258
H        1.8512744534   -1.1098725850    3.8312857833
H        3.7460247062   -4.2923718103    0.4963463433
H        4.6905261555   -4.1523135867   -0.9987708552
H        2.9359007662   -3.8893758572   -1.0221966795
H        4.1953765314   -1.7023319207   -1.1088078779
H        5.0018355891   -2.1026399976    0.4003760400
20   
torsion grid (75,)
C        1.8602546100   -1.0297162486   -0.0673036842
C        2.9018394980   -1.6283494520    2.0149741625
C        0.7726973224   -0.4886434877    0.6234665385
C        1.8315975764   -1.0821682342    2.7222488150
C        2.9379732374   -1.6135022817    0.6110005466
C        0.7456080022   -0.5308583849    2.0252771944
C        3.8370781500   -3.7377443433   -0.4378747642
C        4.0848489110   -2.2468445804   -0.1439265329
N       -0.3047251166    0.0910445375    2.7635854148
O       -2.7309074591    0.0601468442    3.4977404298
S       -1.6688705624   -0.6520106765    2.7560203337
H        1.8696256192   -0.9885886397   -1.1544406930
H        3.7313310238   -2.0661190683    2.5663752215
H       -0.0421746698   -0.0125627092    0.0847173853
H        1.8244143305   -1.0772466462    3.8084058294
H        3.7009349415   -4.3014228185    0.4910335629
H        4.6807902370   -4.1751615414   -0.9824875980
H        2.9337291210   -3.8713514126   -1.0421874933
H        4.2437187382   -1.7130310287   -1.0875327062
H        5.0091989213   -2.1409640990    0.4349910572
20   
torsion grid (90,)
C        1.8795994599   -1.0104066050   -0.0965075741
C        2.8635300210   -1.6265335053    2.0071871694
C        0.7853276479   -0.4511776318    0.5675257109
C        1.7789716936   -1.0711494547    2.6887320691
C        2.9354050194   -1.6076614492    0.6064066066
C        0.7273921730   -0.4892695352    1.9671351356
C        3.8336760948   -3.7423004885   -0.4243605391
C        4.0913288264   -2.2546762210   -0.1232461459
N       -0.3493629558    0.1477324793    2.6616833868
O       -2.6792005981   -0.0326333337    3.6423119556
S       -1.5960879703   -0.7363800133    2.9252238878
H        1.9111208133   -0.9764086907   -1.1835176767
H        3.6710426748   -2.0792888836    2.5787964884
H       -0.0160310225    0.0273100562    0.0113729263
H        1.7449631888   -1.0733877802    3.7746194285
H        3.6713170619   -4.3053635846    0.5007093624
H        4.6839046039   -4.1886117872   -0.9513916603
H        2.9420596257   -3.8653406941   -1.0480888731
H        4.2772645031   -1.7220612559   -1.0626258103
H        5.0038757119   -2.1593251798    0.4758808134
20   
torsion grid (105,)
C        1.9057272752   -0.9923925735   -0.1328479630
C        2.8326193558   -1.6158326072    1.9956038392
C        0.8063266265   -0.4135661929    0.5012769570
C        1.7332636364   -1.0505593497    2.6472269290
C        2.9381328235   -1.6010212879    0.5985646237
C        0.7137188286   -0.4429951196    1.9004313236
C        3.8245583317   -3.7459682127   -0.4191616740
C        4.1017073072   -2.2649017422   -0.1030585563
N       -0.4011842296    0.1783283909    2.5410899820
O       -2.5959925968   -0.0947434848    3.7794077436
S       -1.4828701827   -0.7863897849    3.0963816066
H        1.9624570903   -0.9678665621   -1.2191143965
H        3.6202240625   -2.0761707384    2.5884846664
H        0.0209883133    0.0682448942   -0.0740348733
H        1.6740728096   -1.0516784058    3.7322278126
H        3.6268572011   -4.3103439745    0.4981768425
H        4.6802513891   -4.2053696354   -0.9256467499
H        2.9480346091   -3.8493733868   -1.0673767792
H        4.3224597211   -1.7312178521   -1.0342746537
H        4.9992524252   -2.1892865645    0.5208665008
20   
torsion grid (120,)
C        1.9127984613   -0.9961319735   -0.1478238158
C        2.7990418029   -1.6252863207    1.9969001858
C        0.8027501800   -0.4194243285    0.4650409309
C        1.6853220412   -1.0668999471    2.6290427158
C        2.9316130578   -1.6078427328    0.6025876197
C        0.6763352219   -0.4581332131    1.8637186137
C        3.8337339152   -3.7385094283   -0.4282579803
C        4.1107413308   -2.2647728401   -0.0785190833
N       -0.4693685910    0.1356563492    2.4563810878
O       -2.5188034066   -0.1057203390    3.9296436932
S       -1.3810890080   -0.8059893415    3.2941827020
H        1.9935052810   -0.9661594453   -1.2323780587
H        3.5799575631   -2.0787251338    2.6036163535
H        0.0269225241    0.0631950234   -0.1220608631
H        1.6151537094   -1.0615966529    3.7135113568
H        3.6097658386   -4.3178645055    0.4735240503
H        4.6999061380   -4.1931661117   -0.9208929492
H        2.9737506701   -3.8255431682   -1.1005101278
H        4.3598927577   -1.7161703169   -0.9937807673
H        4.9909061278   -2.2058759193    0.5712855876
20   
torsion grid (135,)
C        1.9184569520   -0.9995551663   -0.1706737709
C        2.7621091490   -1.6490694735    1.9889888888
C        0.7949735039   -0.4343571155    0.4264225843
C        1.6348942080   -1.1023691280    2.6034397475
C        2.9212082983   -1.6170931466    0.5962700225
C        0.6308766200   -0.4979922405    1.8223938772
C        3.8634390771   -3.7292427249   -0.4352861009
C        4.1202245249   -2.2565689133   -0.0652091605
N       -0.5357704965    0.0815816738    2.3668070127
O       -2.4622690670    0.0195125702    4.0128755252
S       -1.3140504800   -0.7275349370    3.4483994998
H        2.0262931244   -0.9507760420   -1.2521599162
H        3.5383354486   -2.0964279498    2.6061626888
H        0.0286689833    0.0537976927   -0.1682333616
H        1.5555760754   -1.0976968886    3.6873742261
H        3.6256313447   -4.3197633004    0.4555861224
H        4.7442880656   -4.1707265781   -0.9135739781
H        3.0190677671   -3.8168210051   -1.1268656748
H        4.3837079971   -1.6967937679   -0.9695575642
H        4.9855656865   -2.1969377917    0.6041085353
20   
torsion grid (150,)
C        1.9115982657   -1.0096665193   -0.1725366594
C        2.7325980112   -1.6923222135    1.9852056038
C        0.7719356671   -0.4748319614    0.4225350626
C        1.5933438055   -1.1736605734    2.5964426682
C        2.9109203548   -1.6308921490    0.5936250515
C        0.5826764337   -0.5748711448    1.8141862682
C        3.9010404726   -3.7167224592   -0.4437644041
C        4.1275442958   -2.2418525246   -0.0616284812
N       -0.6014305741   -0.0169821007    2.3276713792
O       -2.4501628421    0.1518680855    4.0481559986
S       -1.2622934055   -0.6187556977    3.6052826073
H        2.0352963772   -0.9313916122   -1.2504965224
H        3.5094902548   -2.1379492407    2.6027827024
H        0.0056061696    0.0160454560   -0.1697104941
H        1.5080604694   -1.1936711267    3.6797063410
H        3.6662607015   -4.3177501731    0.4408404273
H        4.7943258287   -4.1383601509   -0.9167530230
H        3.0647092872   -3.8147615637   -1.1435451417
H        4.3877791975   -1.6709465599   -0.9598103843
H        4.9857756113   -2.1712380640    0.6157954297
20   
torsion grid (165,)
C        1.9090651886   -1.0267778865   -0.1792119042
C        2.7176368910   -1.7375035700    1.9749609768
C        0.7535992840   -0.5249074100    0.4157494697
C        1.5670370038   -1.2477076232    2.5842487100
C        2.9103728410   -1.6440232699    0.5849641928
C        0.5528649443   -0.6471826705    1.8042257438
C        3.9483065433   -3.7019334345   -0.4607915254
C        4.1427786684   -2.2253798604   -0.0670022840
N       -0.6463090386   -0.1086175575    2.2950609632
O       -2.4523805594    0.2950285630    4.0155780265
S       -1.1980957255   -0.4408640019    3.7138535962
H        2.0410211440   -0.9269306747   -1.2543532395
H        3.4930743207   -2.1890268029    2.5901649682
H       -0.0176954932   -0.0378799448   -0.1731227741
H        1.4699243346   -1.3078273074    3.6650006853
H        3.7204694671   -4.3140943636    0.4179546427
H        4.8529689236   -4.1017512842   -0.9309890090
H        3.1184471779   -3.8115932021   -1.1664282514
H        4.3963177709   -1.6428573168   -0.9595180278
H        4.9953338833   -2.1425170603    0.6162673742
20   
torsion grid (180,)
C        1.9077781810   -1.0301981095   -0.1847583497
C        2.7019297488   -1.7537018775    1.9709050838
C        0.7397515313   -0.5511543698    0.4053727032
C        1.5425113086   -1.2806284449    2.5746334124
C        2.9095995354   -1.6396309278    0.5836894698
C        0.5349923763   -0.6687852401    1.7934955924
C        3.9709726121   -3.6851906899   -0.4622120685
C        4.1510869669   -2.2086691495   -0.0614364826
N       -0.6774208582   -0.1475519524    2.2682822405
O       -2.4364045807    0.4402790636    3.9816141030
S       -1.1012075082   -0.1748875736    3.7667748892
H        2.0444697320   -0.9259242091   -1.2588674082
H        3.4686657786   -2.2199736520    2.5860740674
H       -0.0363561661   -0.0753516237   -0.1862768464
H        1.4241190461   -1.3840463866    3.6499636511
H        3.7415513283   -4.3025129521    0.4124862609
H        4.8820445098   -4.0761397617   -0.9273692351
H        3.1469864776   -3.7983743228   -1.1741039338
H        4.4061795312   -1.6204922590   -0.9497370756
H        4.9978249809   -2.1217614399    0.6285929113
