
  -OEChem-05262117483D

 31 31  0     1  0  0  0  0  0999 V2000
    3.3038   -1.2707   -2.6833 C   0  0  0  0  0  0  0  0  0  0  0  0
    3.4496   -0.2523   -1.7434 C   0  0  0  0  0  0  0  0  0  0  0  0
    2.3941   -2.2991   -2.4205 C   0  0  0  0  0  0  0  0  0  0  0  0
    1.8040   -1.3662   -0.4135 C   0  0  0  0  0  0  0  0  0  0  0  0
    2.6939   -0.2942   -0.5682 C   0  0  0  0  0  0  0  0  0  0  0  0
    5.1935    0.9462    0.6672 C   0  0  0  0  0  0  0  0  0  0  0  0
    2.2986    0.4649    1.8900 C   0  0  0  0  0  0  0  0  0  0  0  0
    6.4705    1.7698    0.6475 C   0  0  0  0  0  0  0  0  0  0  0  0
    2.6971   -0.9629    3.8408 C   0  0  0  0  0  0  0  0  0  0  0  0
    3.8434    3.0460    0.4639 C   0  0  0  0  0  0  0  0  0  0  0  0
    2.7331    0.8354    0.4498 C   0  0  1  0  0  0  0  0  0  0  0  0
    1.6489   -2.3510   -1.3092 N   0  0  0  0  0  0  0  0  0  0  0  0
    2.9533   -0.5714    2.4623 N   0  0  0  0  0  0  0  0  0  0  0  0
    4.0025    1.5909    0.4621 N   0  0  0  0  0  0  0  0  0  0  0  0
    5.2478   -0.2785    0.8412 O   0  0  0  0  0  0  0  0  0  0  0  0
    1.4060    1.1122    2.4446 O   0  0  0  0  0  0  0  0  0  0  0  0
    3.8844   -1.2735   -3.6016 H   0  0  0  0  0  0  0  0  0  0  0  0
    4.1511    0.5593   -1.9157 H   0  0  0  0  0  0  0  0  0  0  0  0
    2.2571   -3.1128   -3.1314 H   0  0  0  0  0  0  0  0  0  0  0  0
    1.1854   -1.4396    0.4786 H   0  0  0  0  0  0  0  0  0  0  0  0
    6.5337    2.4243    1.5231 H   0  0  0  0  0  0  0  0  0  0  0  0
    7.3062    1.0710    0.6755 H   0  0  0  0  0  0  0  0  0  0  0  0
    6.5503    2.3930   -0.2481 H   0  0  0  0  0  0  0  0  0  0  0  0
    3.1577   -0.2685    4.5539 H   0  0  0  0  0  0  0  0  0  0  0  0
    3.1015   -1.9641    4.0039 H   0  0  0  0  0  0  0  0  0  0  0  0
    1.6208   -0.9731    4.0241 H   0  0  0  0  0  0  0  0  0  0  0  0
    3.3674    3.3752   -0.4665 H   0  0  0  0  0  0  0  0  0  0  0  0
    4.8054    3.5447    0.5530 H   0  0  0  0  0  0  0  0  0  0  0  0
    3.2135    3.3542    1.3052 H   0  0  0  0  0  0  0  0  0  0  0  0
    1.9745    1.5614    0.1485 H   0  0  0  0  0  0  0  0  0  0  0  0
    3.7765   -0.9189    1.9740 H   0  0  0  0  0  0  0  0  0  0  0  0
  1  2  1  0  0  0  0
  1  3  2  0  0  0  0
  1 17  1  0  0  0  0
  2  5  2  0  0  0  0
  2 18  1  0  0  0  0
  3 12  1  0  0  0  0
  3 19  1  0  0  0  0
  4  5  1  0  0  0  0
  4 12  2  0  0  0  0
  4 20  1  0  0  0  0
  5 11  1  0  0  0  0
  6  8  1  0  0  0  0
  6 14  1  0  0  0  0
  6 15  2  0  0  0  0
  7 11  1  0  0  0  0
  7 13  1  0  0  0  0
  7 16  2  0  0  0  0
  8 21  1  0  0  0  0
  8 22  1  0  0  0  0
  8 23  1  0  0  0  0
  9 13  1  0  0  0  0
  9 24  1  0  0  0  0
  9 25  1  0  0  0  0
  9 26  1  0  0  0  0
 10 14  1  0  0  0  0
 10 27  1  0  0  0  0
 10 28  1  0  0  0  0
 10 29  1  0  0  0  0
 11 14  1  0  0  0  0
 11 30  1  0  0  0  0
 13 31  1  0  0  0  0
M  END
$$$$
