25
0 1 C9ClH12N3
C                     4.729568295424    -2.073761068975    -5.350780631003
C                     2.793268896953    -2.944984664723    -6.112998028855
C                     4.073282697584    -1.568444982620    -4.237055635806
C                     2.664789856139    -1.742201505100    -4.147883311980
C                     0.171823575716    -0.209532045234    -1.018333135196
C                     1.571827795565     0.360905091384    -1.276799234289
C                     0.091626568352    -1.665479567436    -1.493548245948
C                     1.973101080505     0.160918085379    -2.737481193867
C                     0.541575240038    -1.813509695311    -2.950019463085
N                     4.099682470190    -2.758483888102    -6.320417842086
N                     2.058006876027    -2.474291902414    -5.104627273787
N                     1.897132162012    -1.264844708341    -3.107284458258
Cl                    5.042841013637    -0.868164432876    -2.950396025588
H                     5.805743177383    -1.944305156447    -5.449463052486
H                     2.262204449846    -3.538599360995    -6.855467464557
H                    -0.568720099448     0.391758937989    -1.563480697122
H                    -0.083254471577    -0.138259426316     0.044699228561
H                     1.605018811530     1.430241908385    -1.039437706628
H                     2.308283306896    -0.141876315508    -0.638885076380
H                     0.732743460201    -2.294064616877    -0.863636602158
H                    -0.931534943760    -2.046765072406    -1.399685422330
H                     1.287807310919     0.725117482126    -3.392062126699
H                     2.976034984243     0.540573788042    -2.915846982147
H                     0.555248618233    -2.861352937421    -3.248072923008
H                    -0.158574364805    -1.296798481529    -3.624868925565
