
  -OEChem-05262117483D

 21 22  0     0  0  0  0  0  0999 V2000
   -1.7400   -1.1882    0.6271 C   0  0  0  0  0  0  0  0  0  0  0  0
   -0.3994   -0.9672    0.2203 C   0  0  0  0  0  0  0  0  0  0  0  0
   -2.2504   -2.4724    0.7655 C   0  0  0  0  0  0  0  0  0  0  0  0
    0.4740   -2.0130   -0.0613 C   0  0  0  0  0  0  0  0  0  0  0  0
   -1.3802   -3.5390    0.4846 C   0  0  0  0  0  0  0  0  0  0  0  0
   -0.0495   -3.3065    0.0809 C   0  0  0  0  0  0  0  0  0  0  0  0
    1.7749   -4.9552   -0.4999 C   0  0  0  0  0  0  0  0  0  0  0  0
    3.2024   -6.9021   -0.9631 C   0  0  0  0  0  0  0  0  0  0  0  0
   -1.5993   -4.9085    0.5327 N   0  0  0  0  0  0  0  0  0  0  0  0
   -0.5140   -5.5125    0.1925 N   0  0  0  0  0  0  0  0  0  0  0  0
    0.4588   -4.5744   -0.0920 N   0  0  0  0  0  0  0  0  0  0  0  0
    1.9392   -6.2961   -0.5695 N   0  0  0  0  0  0  0  0  0  0  0  0
    2.6112   -4.0958   -0.7436 O   0  0  0  0  0  0  0  0  0  0  0  0
   -2.3757   -0.3318    0.8334 H   0  0  0  0  0  0  0  0  0  0  0  0
   -0.0426    0.0548    0.1253 H   0  0  0  0  0  0  0  0  0  0  0  0
   -3.2741   -2.6572    1.0760 H   0  0  0  0  0  0  0  0  0  0  0  0
    1.4987   -1.8525   -0.3724 H   0  0  0  0  0  0  0  0  0  0  0  0
    3.0731   -7.5146   -1.8615 H   0  0  0  0  0  0  0  0  0  0  0  0
    3.5988   -7.5279   -0.1567 H   0  0  0  0  0  0  0  0  0  0  0  0
    3.9138   -6.1044   -1.1761 H   0  0  0  0  0  0  0  0  0  0  0  0
    1.1410   -6.8748   -0.3326 H   0  0  0  0  0  0  0  0  0  0  0  0
  1  2  1  0  0  0  0
  1  3  2  0  0  0  0
  1 14  1  0  0  0  0
  2  4  2  0  0  0  0
  2 15  1  0  0  0  0
  3  5  1  0  0  0  0
  3 16  1  0  0  0  0
  4  6  1  0  0  0  0
  4 17  1  0  0  0  0
  5  6  2  0  0  0  0
  5  9  1  0  0  0  0
  6 11  1  0  0  0  0
  7 11  1  0  0  0  0
  7 12  1  0  0  0  0
  7 13  2  0  0  0  0
  8 12  1  0  0  0  0
  8 18  1  0  0  0  0
  8 19  1  0  0  0  0
  8 20  1  0  0  0  0
  9 10  2  0  0  0  0
 10 11  1  0  0  0  0
 12 21  1  0  0  0  0
M  END
$$$$
