
  -OEChem-05262117483D

 36 38  0     0  0  0  0  0  0999 V2000
   -6.5000    4.0254   -5.6413 C   0  0  0  0  0  0  0  0  0  0  0  0
   -7.2325    4.9000   -4.8078 C   0  0  0  0  0  0  0  0  0  0  0  0
   -5.4190    3.2944   -5.1548 C   0  0  0  0  0  0  0  0  0  0  0  0
   -6.9006    5.0616   -3.4637 C   0  0  0  0  0  0  0  0  0  0  0  0
   -4.1939    3.4169   -1.7106 C   0  0  0  0  0  0  0  0  0  0  0  0
   -5.0577    3.4457   -3.8042 C   0  0  0  0  0  0  0  0  0  0  0  0
   -4.0130    2.8836   -2.9752 C   0  0  0  0  0  0  0  0  0  0  0  0
   -5.8121    4.3246   -2.9804 C   0  0  0  0  0  0  0  0  0  0  0  0
   -3.0588    1.8473   -3.4298 C   0  0  0  0  0  0  0  0  0  0  0  0
    1.0453    1.5544   -2.0800 C   0  0  0  0  0  0  0  0  0  0  0  0
    0.2882    2.8671   -2.3742 C   0  0  0  0  0  0  0  0  0  0  0  0
    0.1004    0.3381   -2.1838 C   0  0  0  0  0  0  0  0  0  0  0  0
   -1.1930    2.7630   -1.9964 C   0  0  0  0  0  0  0  0  0  0  0  0
   -1.0132    0.5725   -3.2033 C   0  0  0  0  0  0  0  0  0  0  0  0
   -5.7752    5.0082   -0.5566 C   0  0  0  0  0  0  0  0  0  0  0  0
   -5.2684    4.2793   -1.7030 N   0  0  0  0  0  0  0  0  0  0  0  0
   -1.8487    1.7101   -2.7838 N   0  0  0  0  0  0  0  0  0  0  0  0
   -3.3615    1.0898   -4.3634 O   0  0  0  0  0  0  0  0  0  0  0  0
   -6.7946    3.9177   -6.6820 H   0  0  0  0  0  0  0  0  0  0  0  0
   -8.0726    5.4531   -5.2198 H   0  0  0  0  0  0  0  0  0  0  0  0
   -4.8684    2.6048   -5.7851 H   0  0  0  0  0  0  0  0  0  0  0  0
   -7.4684    5.7312   -2.8232 H   0  0  0  0  0  0  0  0  0  0  0  0
   -3.6552    3.2229   -0.7929 H   0  0  0  0  0  0  0  0  0  0  0  0
    1.4902    1.5888   -1.0794 H   0  0  0  0  0  0  0  0  0  0  0  0
    1.8760    1.4489   -2.7861 H   0  0  0  0  0  0  0  0  0  0  0  0
    0.7381    3.7070   -1.8340 H   0  0  0  0  0  0  0  0  0  0  0  0
    0.3494    3.1094   -3.4409 H   0  0  0  0  0  0  0  0  0  0  0  0
    0.6575   -0.5624   -2.4613 H   0  0  0  0  0  0  0  0  0  0  0  0
   -0.3585    0.1324   -1.2096 H   0  0  0  0  0  0  0  0  0  0  0  0
   -1.2842    2.5601   -0.9185 H   0  0  0  0  0  0  0  0  0  0  0  0
   -1.6928    3.7120   -2.1924 H   0  0  0  0  0  0  0  0  0  0  0  0
   -0.5940    0.7542   -4.2027 H   0  0  0  0  0  0  0  0  0  0  0  0
   -1.6592   -0.3024   -3.2949 H   0  0  0  0  0  0  0  0  0  0  0  0
   -5.7362    6.0886   -0.7344 H   0  0  0  0  0  0  0  0  0  0  0  0
   -6.8112    4.7241   -0.3423 H   0  0  0  0  0  0  0  0  0  0  0  0
   -5.1627    4.7770    0.3166 H   0  0  0  0  0  0  0  0  0  0  0  0
  1  2  1  0  0  0  0
  1  3  2  0  0  0  0
  1 19  1  0  0  0  0
  2  4  2  0  0  0  0
  2 20  1  0  0  0  0
  3  6  1  0  0  0  0
  3 21  1  0  0  0  0
  4  8  1  0  0  0  0
  4 22  1  0  0  0  0
  5  7  2  0  0  0  0
  5 16  1  0  0  0  0
  5 23  1  0  0  0  0
  6  7  1  0  0  0  0
  6  8  2  0  0  0  0
  7  9  1  0  0  0  0
  8 16  1  0  0  0  0
  9 17  1  0  0  0  0
  9 18  2  0  0  0  0
 10 11  1  0  0  0  0
 10 12  1  0  0  0  0
 10 24  1  0  0  0  0
 10 25  1  0  0  0  0
 11 13  1  0  0  0  0
 11 26  1  0  0  0  0
 11 27  1  0  0  0  0
 12 14  1  0  0  0  0
 12 28  1  0  0  0  0
 12 29  1  0  0  0  0
 13 17  1  0  0  0  0
 13 30  1  0  0  0  0
 13 31  1  0  0  0  0
 14 17  1  0  0  0  0
 14 32  1  0  0  0  0
 14 33  1  0  0  0  0
 15 16  1  0  0  0  0
 15 34  1  0  0  0  0
 15 35  1  0  0  0  0
 15 36  1  0  0  0  0
M  END
$$$$
