
  -OEChem-05262117483D

 28 27  0     1  0  0  0  0  0999 V2000
   -0.2511   -1.4243    1.3095 C   0  0  0  0  0  0  0  0  0  0  0  0
   -3.5473   -2.9614    0.7607 C   0  0  0  0  0  0  0  0  0  0  0  0
    1.4124    0.1322    0.2815 C   0  0  0  0  0  0  0  0  0  0  0  0
    2.0641   -2.2553    0.8531 C   0  0  0  0  0  0  0  0  0  0  0  0
   -3.3368   -0.6663    1.8094 C   0  0  0  0  0  0  0  0  0  0  0  0
   -5.5408   -4.4240    0.9266 C   0  0  0  0  0  0  0  0  0  0  0  0
    0.9419   -1.3293    0.3588 C   0  0  0  0  0  0  0  0  0  0  0  0
   -2.6304   -2.0080    1.5378 C   0  0  2  0  0  0  0  0  0  0  0  0
   -4.5431   -3.5270    1.4958 N   0  0  0  0  0  0  0  0  0  0  0  0
   -1.4243   -1.8326    0.7508 N   0  0  0  0  0  0  0  0  0  0  0  0
   -0.1591   -1.1407    2.5079 O   0  0  0  0  0  0  0  0  0  0  0  0
   -3.3986   -3.1584   -0.4478 O   0  0  0  0  0  0  0  0  0  0  0  0
    1.6999    0.4874    1.2751 H   0  0  0  0  0  0  0  0  0  0  0  0
    2.2775    0.2196   -0.3844 H   0  0  0  0  0  0  0  0  0  0  0  0
    0.6215    0.7872   -0.0995 H   0  0  0  0  0  0  0  0  0  0  0  0
    2.3657   -1.9726    1.8655 H   0  0  0  0  0  0  0  0  0  0  0  0
    2.9363   -2.1819    0.1948 H   0  0  0  0  0  0  0  0  0  0  0  0
    1.7396   -3.3012    0.8736 H   0  0  0  0  0  0  0  0  0  0  0  0
   -3.6521   -0.2063    0.8680 H   0  0  0  0  0  0  0  0  0  0  0  0
   -4.2192   -0.8018    2.4435 H   0  0  0  0  0  0  0  0  0  0  0  0
   -2.6414    0.0030    2.3203 H   0  0  0  0  0  0  0  0  0  0  0  0
   -6.5458   -4.1197    1.2349 H   0  0  0  0  0  0  0  0  0  0  0  0
   -5.3682   -5.4606    1.2375 H   0  0  0  0  0  0  0  0  0  0  0  0
   -5.4643   -4.3658   -0.1591 H   0  0  0  0  0  0  0  0  0  0  0  0
    0.6303   -1.6529   -0.6423 H   0  0  0  0  0  0  0  0  0  0  0  0
   -2.3480   -2.4563    2.4970 H   0  0  0  0  0  0  0  0  0  0  0  0
   -4.5566   -3.3564    2.4925 H   0  0  0  0  0  0  0  0  0  0  0  0
   -1.4842   -2.1225   -0.2198 H   0  0  0  0  0  0  0  0  0  0  0  0
  1  7  1  0  0  0  0
  1 10  1  0  0  0  0
  1 11  2  0  0  0  0
  2  8  1  0  0  0  0
  2  9  1  0  0  0  0
  2 12  2  0  0  0  0
  3  7  1  0  0  0  0
  3 13  1  0  0  0  0
  3 14  1  0  0  0  0
  3 15  1  0  0  0  0
  4  7  1  0  0  0  0
  4 16  1  0  0  0  0
  4 17  1  0  0  0  0
  4 18  1  0  0  0  0
  5  8  1  0  0  0  0
  5 19  1  0  0  0  0
  5 20  1  0  0  0  0
  5 21  1  0  0  0  0
  6  9  1  0  0  0  0
  6 22  1  0  0  0  0
  6 23  1  0  0  0  0
  6 24  1  0  0  0  0
  7 25  1  0  0  0  0
  8 10  1  0  0  0  0
  8 26  1  0  0  0  0
  9 27  1  0  0  0  0
 10 28  1  0  0  0  0
M  END
$$$$
