18   
torsion grid (-165,)
C       -0.6297064712    3.5206888820    1.7952684436
C       -0.9994192780    2.1637757424    2.3585434683
C       -1.6044247202    2.6392669513    1.0550740571
C        1.2366749332    2.3659576643   -1.3102274169
N       -0.2992073467    4.4708112388   -1.1487605483
N       -1.2290460235    2.0028904660   -0.1956152296
O       -1.0754806703    2.4196196202   -2.6704827499
S       -0.4481983122    2.9648487389   -1.4422667990
H       -1.0304684651    4.4159744196    2.2591675177
H        0.3634835603    3.6498990447    1.3840199512
H       -0.2586973654    1.3741393607    2.2784010561
H       -1.6457204449    2.1066135809    3.2296904391
H       -2.6408749145    2.9693301661    1.0978002802
H        1.2021699438    1.2848049817   -1.4393966053
H        1.8075061640    2.8447300366   -2.1064351476
H        1.6378463886    2.6338822398   -0.3334118270
H       -1.1900211728    4.9585093489   -1.2671494603
H       -2.0467872502    1.6509379259   -0.6933447828
18   
torsion grid (-150,)
C       -1.4561066775    3.7228221303    1.9235618755
C       -0.2398974031    2.8211475029    1.8332118519
C       -1.4903163279    2.5150020662    1.0264298640
C        0.9453791457    1.7469398901   -1.2050190974
N        0.4147515925    4.3009776605   -0.9415292491
N       -1.6162452796    2.6365965961   -0.4271167812
O       -0.8788145317    2.8642900614   -2.7884542945
S       -0.2984815907    3.0314653551   -1.4408063070
H       -2.0643825195    3.7178195958    2.8237250828
H       -1.3686096758    4.6847535528    1.4283312188
H        0.6175577954    3.2537252500    1.3320962737
H       -0.0135385756    2.1558288236    2.6618932777
H       -2.0671880424    1.6680084789    1.3857851964
H        0.4992698081    0.8058437408   -1.5295315766
H        1.7908464906    2.0094292336   -1.8417956513
H        1.2466876275    1.7029782023   -0.1601461111
H       -0.1645799970    5.1257498372   -1.1124899326
H       -2.0961950129    1.8426150346   -0.8457745218
18   
torsion grid (-135,)
C       -1.5846409962    3.6159737530    2.0263862358
C       -0.2375041303    2.9784446350    1.7872973044
C       -1.4549707934    2.5066128452    1.0084960589
C        0.8434341720    1.6630275031   -1.1713003436
N        0.5352749355    4.2570285882   -1.0494835645
N       -1.6372602031    2.7949193954   -0.4130523569
O       -0.9186513414    2.8528743173   -2.7938632476
S       -0.2949851740    3.0295181047   -1.4652436206
H       -2.1162447860    3.4100479446    2.9512189597
H       -1.7327022820    4.6109190388    1.6179792399
H        0.5023495771    3.5801543562    1.2724246162
H        0.1522096383    2.2942266880    2.5357952644
H       -1.8351051791    1.5287126008    1.2926402652
H        0.3090489633    0.7399469802   -1.4000048284
H        1.6800027989    1.8015258000   -1.8569848999
H        1.1839413447    1.6816197634   -0.1374745718
H        0.0137637405    5.1173204147   -1.2324986349
H       -2.2232706123    2.0994181467   -0.8714304829
18   
torsion grid (-120,)
C       -1.6805580540    3.4974437041    2.1244982095
C       -0.2467153117    3.1535137921    1.8183623138
C       -1.3648678902    2.5236303535    1.0068250126
C        0.7913235838    1.6278654661   -1.1490765465
N        0.6889997193    4.2361303165   -1.0807909636
N       -1.5853435848    2.9490184027   -0.3675510491
O       -0.9087897589    2.9294130062   -2.7693458748
S       -0.2435969550    3.0709222209   -1.4556478862
H       -2.1357791511    3.1054111127    3.0295351336
H       -2.0364372425    4.4729921739    1.8092366634
H        0.3666830292    3.9017916992    1.3307475015
H        0.2816540782    2.4967903742    2.5034268650
H       -1.5528099657    1.4681738971    1.1969110018
H        0.1842745387    0.7409980743   -1.3361177453
H        1.6187363390    1.6824420678   -1.8572293798
H        1.1588708599    1.6544681570   -0.1244459114
H        0.2317876512    5.1306216384   -1.2726217930
H       -2.2580296915    2.3530853758   -0.8485578457
18   
torsion grid (-105,)
C       -1.7588647028    3.4154948133    2.1648485645
C       -0.2839154430    3.3217226324    1.8750867982
C       -1.2686540857    2.5523517059    1.0180001028
C        0.7411376554    1.5662987510   -1.1867261873
N        0.8166521430    4.1714177593   -1.0837901759
N       -1.5167370771    3.0209606795   -0.3300381476
O       -0.9063377317    3.0038050877   -2.7509065837
S       -0.2014046982    3.0783561923   -1.4523512074
H       -2.1551328762    2.9111785173    3.0413849089
H       -2.2676886678    4.3318547485    1.8844190976
H        0.2101202627    4.1680376029    1.4141104491
H        0.3386797755    2.7383796415    2.5467734849
H       -1.2974179205    1.4723887195    1.1636753815
H        0.0750138965    0.7229323189   -1.3740176235
H        1.5582811341    1.5780153006   -1.9085316499
H        1.1286764369    1.5560854086   -0.1688053659
H        0.4195959612    5.0969211254   -1.2622840674
H       -2.2670057276    2.5117482084   -0.7962457944
18   
torsion grid (-90,)
C       -1.8230789285    3.3367931707    2.1486958006
C       -0.3393011407    3.4582971585    1.9069247080
C       -1.1720852721    2.5620534663    1.0194236371
C        0.6884936301    1.4529527390   -1.2849330108
N        0.9201652010    4.0416078960   -1.1086176890
N       -1.4461373546    3.0054492995   -0.3265789638
O       -0.9141326654    3.0266635429   -2.7609130814
S       -0.1708845984    3.0236899850   -1.4820015251
H       -2.1704738611    2.7712973322    3.0082187326
H       -2.4491252133    4.1739528674    1.8579877966
H        0.0374397427    4.3687247368    1.4577511328
H        0.3429696723    2.9731311296    2.5979027510
H       -1.0619049464    1.4868238853    1.1674750644
H       -0.0303683953    0.6543831317   -1.4734895615
H        1.4851418691    1.4371930426   -2.0291913671
H        1.1050831821    1.3931337692   -0.2799941658
H        0.5774904762    4.9946569891   -1.2504287569
H       -2.2619628117    2.5683739483   -0.7533314012
18   
torsion grid (-75,)
C       -1.8774954382    3.2737424099    2.1485374178
C       -0.4173587693    3.6120761247    1.9597231472
C       -1.0759697676    2.6046998788    1.0503746301
C        0.6273707253    1.3812547146   -1.4007619434
N        1.0129437564    3.9377496769   -1.0951599822
N       -1.3769729036    2.9977913856   -0.3022182116
O       -0.9227755845    3.1104296759   -2.7426751899
S       -0.1453051775    3.0059229501   -1.4891617955
H       -2.1701295308    2.6625691322    2.9968546625
H       -2.6073705039    4.0131300128    1.8349794943
H       -0.1698174332    4.5697642657    1.5180542997
H        0.3043216698    3.2371769526    2.6784299808
H       -0.8231126030    1.5558160838    1.2134591670
H       -0.1443018522    0.6358314540   -1.5976941205
H        1.3939229206    1.3557535272   -2.1757845937
H        1.0782341592    1.2468923450   -0.4179157336
H        0.7245837540    4.9157404530   -1.1713693112
H       -2.2426355189    2.6249569571   -0.6878174316
18   
torsion grid (-60,)
C       -1.9067467510    3.2131256949    2.1598649111
C       -0.5013055264    3.7549501351    2.0154098516
C       -0.9826332848    2.6620431883    1.0955743862
C        0.5726492191    1.3317197112   -1.4980731821
N        1.1076311968    3.8409176347   -1.0603429000
N       -1.3032762456    2.9913933050   -0.2677095867
O       -0.9067488230    3.2059681868   -2.7057229675
S       -0.1091629931    2.9986628452   -1.4784096819
H       -2.1391141476    2.5699638612    3.0029373905
H       -2.7221245506    3.8455251860    1.8227174529
H       -0.3848539004    4.7380976319    1.5740017138
H        0.2417268322    3.4918370451    2.7614392846
H       -0.5923576041    1.6599234766    1.2785967487
H       -0.2429475593    0.6453638036   -1.7290769366
H        1.3299038449    1.3087229661   -2.2823019706
H        1.0242957717    1.1112208651   -0.5310950494
H        0.8718815165    4.8356674160   -1.0590999368
H       -2.2086724652    2.6906907205   -0.6203753095
18   
torsion grid (-45,)
C       -0.7299054087    2.1038710512    2.6970667820
C       -1.6732113598    3.1856442523    2.2123854106
C       -0.4350431784    2.8526194444    1.4177952900
C        0.7986821263    3.7428442591   -1.6043862278
N       -1.7612688819    4.0154941702   -1.2326648654
N       -0.5528287385    2.1108163327    0.1925114360
O       -0.8191505368    1.7143317629   -2.2367970009
S       -0.7449011902    2.8637638476   -1.3098653221
H       -0.0938306020    2.3028410580    3.5538546192
H       -1.0620821467    1.0742606469    2.6029067089
H       -2.6192962479    2.8688189664    1.7872624845
H       -1.6944102200    4.1359978278    2.7364004711
H        0.3826826863    3.5718538994    1.4666965137
H        1.5992532247    3.0023924544   -1.6144303764
H        0.7096399483    4.2287388275   -2.5765622406
H        0.9484130350    4.4872153143   -0.8224124539
H       -2.7077306870    3.6535492826   -1.0982600505
H       -0.1537635989    1.1787828723    0.1353053580
18   
torsion grid (-30,)
C       -0.8305862362    2.0289107550    2.6339304161
C       -1.6877508794    3.1194592860    2.0325633319
C       -0.3359719017    2.8027712316    1.4319734715
C        0.9383097932    3.7238820458   -1.6877556049
N       -1.6205133055    3.8922629956   -1.2713603721
N       -0.2348047815    2.1006851186    0.1865864769
O       -0.6038568101    1.5971231542   -2.2053569583
S       -0.5516109006    2.7857089126   -1.3255861187
H       -0.3356390280    2.2075906735    3.5833407914
H       -1.1399158698    1.0009028793    2.4685437732
H       -2.5591704718    2.8138957431    1.4642367551
H       -1.7924040920    4.0593402487    2.5652892050
H        0.4585447427    3.5228759450    1.6237954319
H        1.7678638375    3.0168737486   -1.7072440109
H        0.7988547280    4.1919247733   -2.6627530689
H        1.0778858177    4.4828441465   -0.9178050706
H       -2.5493307179    3.4925640764   -1.1220443965
H       -0.0393595500    1.1066579394    0.1568084052
18   
torsion grid (-15,)
C       -0.8086211115    2.0229848805    2.6317623083
C       -1.6777877796    3.0838192273    1.9989682733
C       -0.2880507406    2.8179759640    1.4549694122
C        0.9420191720    3.6738798900   -1.7863913530
N       -1.5819925701    3.9063446817   -1.2151096125
N       -0.0853455259    2.1314841901    0.2094972571
O       -0.6733076094    1.5626931544   -2.1348958961
S       -0.5364000457    2.7786218909   -1.3006818062
H       -0.3619004314    2.2128389419    3.6027682574
H       -1.0725629988    0.9841882085    2.4529467511
H       -2.5170608407    2.7482177126    1.3996699598
H       -1.8390239481    4.0170888404    2.5292607620
H        0.4674095881    3.5678971673    1.6797814600
H        1.7561821606    2.9506876340   -1.8289665912
H        0.7486805209    4.1104245665   -2.7668037710
H        1.1406361858    4.4545281915   -1.0521249684
H       -2.5102200081    3.5321820978   -1.0090527745
H       -0.0692508339    1.1172974070    0.1974642701
18   
torsion grid (0,)
C       -0.7983785955    2.0305295187    2.6483549984
C       -1.8510710324    2.8421469268    1.9282553810
C       -0.3904608028    2.9538552411    1.5250778783
C        1.0206050940    3.5360965856   -1.9776844537
N       -1.3076983203    4.2489742994   -1.0456233067
N        0.1010375829    2.3661904547    0.3015190415
O       -0.9523142458    1.7374620776   -1.9199356886
S       -0.4913947410    2.9537783305   -1.2080594903
H       -0.5153024065    2.3113708072    3.6579903336
H       -0.7706058727    0.9610404257    2.4573150826
H       -2.5135275192    2.3019369269    1.2579962927
H       -2.3024429897    3.6869900702    2.4396509568
H        0.1184502119    3.8721026880    1.8019936086
H        1.7048169397    2.6892883215   -2.0327442576
H        0.7556775454    3.8908554954   -2.9744290584
H        1.4335395503    4.3416866494   -1.3721701600
H       -2.2347521438    4.0604929395   -0.6611636169
H        0.1343447003    1.3500113089    0.2931844951
18   
torsion grid (15,)
C       -0.7532514902    2.0647251511    2.6728461082
C       -1.8808171682    2.7569492636    1.9318735032
C       -0.4385986407    2.9660978723    1.5068414262
C        1.0489218111    3.5166549483   -1.9751445830
N       -1.2385530202    4.3372709302   -1.0218105280
N        0.0981707918    2.3677646087    0.3030264768
O       -1.0173901467    1.8198675055   -1.9207930563
S       -0.4867555079    3.0054322441   -1.2041784465
H       -0.4864424573    2.4119316226    3.6660927299
H       -0.6413044534    0.9929960986    2.5309752115
H       -2.5045706869    2.1376490940    1.2929639470
H       -2.3957573688    3.5807856381    2.4172769368
H        0.0020809206    3.9317459921    1.7315049551
H        1.6885569644    2.6365503249   -2.0406976853
H        0.7966650668    3.8934307945   -2.9670218157
H        1.5052462638    4.2945071567   -1.3646300727
H       -2.1700165356    4.1866790502   -0.6300004662
H       -0.0118820975    1.3553009748    0.2744024825
18   
torsion grid (30,)
C       -0.6536480516    2.1049686282    2.7039206693
C       -1.8673306690    2.6952579008    2.0014595655
C       -0.4718242331    2.9418161633    1.4667339265
C        1.0656315552    3.5254149902   -1.9274508835
N       -1.2464160591    4.3476292513   -1.0366138424
N        0.0241563734    2.2950140349    0.2678636408
O       -1.0297559915    1.8576167534   -2.0055000081
S       -0.5053406878    3.0109768359   -1.2342476767
H       -0.3424125175    2.5280980115    3.6538876174
H       -0.4949807368    1.0330955178    2.6204449488
H       -2.5028892157    2.0092895414    1.4474189107
H       -2.3906002828    3.5217909835    2.4734626976
H       -0.0621036342    3.9374676202    1.5975877823
H        1.6913244289    2.6365676819   -2.0047057026
H        0.8568385695    3.9486480392   -2.9105903368
H        1.5130069651    4.2690588183   -1.2692203689
H       -2.1945068093    4.1952476886   -0.6863338039
H       -0.2479661913    1.3129621359    0.2161757434
18   
torsion grid (45,)
C       -0.1365636409    2.7462552748    2.0849888335
C       -1.5499663843    2.3113100894    2.4336359476
C       -1.2948438755    3.0536328954    1.1515236418
C        1.0333583812    3.0966616121   -1.1268800496
N       -1.1100414720    4.4751525452   -1.6778543077
N       -1.4903024476    2.3604742560   -0.1020934554
O       -0.9477525848    1.9290917667   -2.4965092541
S       -0.7279615186    2.9956279980   -1.4974448529
H        0.3099106596    3.5655948390    2.6414820554
H        0.5600299830    1.9676261072    1.7855125907
H       -1.7784131863    1.2509036882    2.3657822315
H       -2.0803716195    2.8300900474    3.2260887532
H       -1.6289233919    4.0841697038    1.0961081778
H        1.3880831855    2.0842310147   -0.9304720437
H        1.5144122905    3.5063825867   -2.0155505968
H        1.1873095629    3.7498676367   -0.2694330798
H       -2.0909910842    4.5593165189   -1.9542978849
H       -1.3803056035    1.3482475771   -0.0664120204
18   
torsion grid (60,)
C       -0.1310622829    2.8687679220    2.0847305051
C       -1.4810972936    2.2764787352    2.4469955978
C       -1.3358017577    3.0752137792    1.1812040909
C        1.0587479704    3.0430385930   -1.1206425479
N       -1.0264456176    4.5164408297   -1.6313005882
N       -1.4809757627    2.4015460436   -0.0856211637
O       -0.9804827986    1.9745852003   -2.4805544448
S       -0.7087428130    3.0193477368   -1.4708951856
H        0.2351736498    3.7193084465    2.6524154334
H        0.6360167983    2.1745226542    1.7542209717
H       -1.5936189109    1.1993434919    2.3553989861
H       -2.0493909979    2.7150768309    3.2612274641
H       -1.7715751478    4.0688902463    1.1709299619
H        1.3698437065    2.0166466392   -0.9227590848
H        1.5473927309    3.4260185657   -2.0171484792
H        1.2508848706    3.6949844562   -0.2701109770
H       -2.0063501737    4.6467947348   -1.8932375500
H       -1.5009585843    1.3849201558   -0.0762239502
18   
torsion grid (75,)
C       -0.1677999133    2.9459229965    2.0833821880
C       -1.4583490448    2.2318264182    2.4337219706
C       -1.3840881833    3.0615852435    1.1795256519
C        1.0711574565    2.9722925213   -1.1504938947
N       -0.9673888641    4.5217738882   -1.6073888640
N       -1.4580291889    2.3941578936   -0.0923066457
O       -1.0209809316    1.9926611689   -2.4954410359
S       -0.7001588019    3.0119066638   -1.4736055095
H        0.1207060309    3.8187369867    2.6616183437
H        0.6566806974    2.3273531496    1.7426495383
H       -1.4744148226    1.1509271691    2.3227776453
H       -2.0654040114    2.6061817708    3.2519746313
H       -1.9025090946    4.0154955672    1.1912216483
H        1.3469338523    1.9350294314   -0.9571381512
H        1.5622055282    3.3393366822   -2.0523963964
H        1.2969167209    3.6166718542   -0.3023786634
H       -1.9460681738    4.6904486743   -1.8516690450
H       -1.6208624037    1.3929014022   -0.1243282330
18   
torsion grid (90,)
C       -0.1687235974    3.0197022643    2.1504444455
C       -1.4319549132    2.2491807161    2.4718983281
C       -1.3651153917    3.0811182221    1.2166394744
C        1.1059878052    2.9752665396   -1.1752410575
N       -0.9259742650    4.5539094920   -1.5455757004
N       -1.3554506896    2.3933108238   -0.0422865403
O       -1.0438738891    2.0405493728   -2.4676711864
S       -0.6720510623    3.0385641510   -1.4416699506
H        0.0651056036    3.9056053523    2.7331641715
H        0.6893309578    2.4405695714    1.8242043509
H       -1.3974964702    1.1689998726    2.3613535051
H       -2.0739289663    2.5992294565    3.2741225073
H       -1.9277120430    4.0108318597    1.2137360907
H        1.3736912323    1.9305028389   -1.0148432485
H        1.5780460035    3.3628357170   -2.0786706905
H        1.3595189458    3.5938777416   -0.3154133564
H       -1.9087543541    4.7377586040   -1.7611490497
H       -1.6845856376    1.4385507791   -0.1273837234
18   
torsion grid (105,)
C       -0.1668520617    2.9341406648    2.2540125485
C       -1.5175621755    2.2824140503    2.4510309338
C       -1.2257318131    3.0304123189    1.1726881690
C        1.1748696703    2.9749085829   -1.3152469802
N       -0.9666879424    4.4259387524   -1.6075076431
N       -1.0876599378    2.2328731413   -0.0170758077
O       -1.0090013650    1.9002917204   -2.4747108044
S       -0.6110222664    2.9297986441   -1.4898504667
H        0.0657799182    3.8310105695    2.8208394053
H        0.6755936973    2.2796461307    2.0525218537
H       -1.5607314151    1.1982768347    2.3980034508
H       -2.2199723777    2.7298462939    3.1473103747
H       -1.7129978394    3.9928600755    1.0355438514
H        1.5125638850    1.9430532343   -1.2204064859
H        1.5787484069    3.4448639421   -2.2122842637
H        1.4245930105    3.5581540094   -0.4289938574
H       -1.9629671993    4.5445754463   -1.8068211652
H       -1.6724544882    1.4124185373   -0.1387243138
18   
torsion grid (120,)
C       -0.1581776142    2.9728325519    2.2652964640
C       -1.4859486579    2.2827442199    2.4848032298
C       -1.2261376814    3.0187507032    1.1924108153
C        1.1942509444    2.9754140689   -1.2576053524
N       -0.9394693686    4.4467051266   -1.5427365060
N       -1.0519411216    2.1945405708    0.0204789834
O       -0.9963987134    1.9449937060   -2.4606236043
S       -0.5883532460    2.9463390938   -1.4505434058
H        0.0506127680    3.8864131215    2.8139686319
H        0.7012470602    2.3394510720    2.0689686655
H       -1.4948472755    1.1975138511    2.4478408737
H       -2.1955718790    2.7219337822    3.1791341608
H       -1.7401645644    3.9660358499    1.0418026049
H        1.5227669773    1.9408437236   -1.1632484149
H        1.6071219205    3.4467201476   -2.1497872286
H        1.4397764858    3.5542164124   -0.3674386413
H       -1.9269298979    4.5726102865   -1.7780190657
H       -1.7755746480    1.5013959387   -0.1583839986
18   
torsion grid (135,)
C       -0.1687434574    2.9933622993    2.0709747128
C       -1.4155265379    2.1972285158    2.3885842076
C       -1.2924687271    2.9094886216    1.0622683112
C        1.1856232868    2.8319586462   -1.3306236264
N       -0.9090649522    4.3594621723   -1.6297045156
N       -1.0960584934    2.0686267747   -0.0959300703
O       -1.0085729378    1.8774912048   -2.5905025623
S       -0.5927514812    2.8498372264   -1.5549325854
H       -0.0122691800    3.9423116925    2.5744675297
H        0.7310951737    2.4278736946    1.8508103491
H       -1.3294221243    1.1152089616    2.3795373094
H       -2.1221322741    2.5971728516    3.1092614643
H       -1.8905280886    3.8079381203    0.9192735903
H        1.4854660113    1.7903992882   -1.2203079425
H        1.6222425984    3.2818572842   -2.2226165493
H        1.4330137280    3.4164492690   -0.4451903102
H       -1.8845003686    4.5117496314   -1.8970547116
H       -1.8923003137    1.4737618814   -0.3253810760
18   
torsion grid (150,)
C       -0.1940258565    3.1087223809    1.9878541019
C       -1.3071853200    2.1623313003    2.3850008153
C       -1.3464981701    2.8602862643    1.0453266235
C        1.2341228809    2.7742706466   -1.3224733078
N       -0.7790396186    4.4249371892   -1.5235350780
N       -1.0974456627    2.0474372174   -0.1236353336
O       -0.9984502752    2.0122503461   -2.6321934925
S       -0.5406252505    2.8994956233   -1.5382464162
H       -0.1362392394    4.0827110268    2.4626846278
H        0.7602551400    2.6580707714    1.7359011689
H       -1.0818682996    1.1008473884    2.3810029080
H       -2.0218509860    2.4816574300    3.1374147503
H       -2.0580855594    3.6772141827    0.9335266715
H        1.4739453948    1.7166751342   -1.2187900029
H        1.6881081904    3.2007142720   -2.2175266530
H        1.5228987742    3.3421612872   -0.4393837545
H       -1.7423038956    4.6437296240   -1.7886110979
H       -1.9199376572    1.5266045228   -0.4326247433
18   
torsion grid (165,)
C       -0.3689491988    3.2979886906    1.9212846143
C       -1.2293178142    2.1516078204    2.4073632569
C       -1.4831263654    2.7765471246    1.0521105218
C        1.2338255521    2.5964126409   -1.3655680446
N       -0.5977917037    4.4575737651   -1.3312011069
N       -1.1295882198    2.0092362480   -0.1211648010
O       -1.0962206915    2.1801623286   -2.6340364209
S       -0.5242285359    2.9247983269   -1.4867405452
H       -0.4989149577    4.2824657240    2.3574544851
H        0.6478354104    3.0602687617    1.6287191665
H       -0.7869000539    1.1608642546    2.4105573599
H       -1.9586914263    2.3380444237    3.1899058328
H       -2.3574862727    3.4212736401    0.9677684218
H        1.3594404001    1.5144669756   -1.3455511969
H        1.6962731619    3.0346008889   -2.2507073235
H        1.6211849478    3.0619504658   -0.4607807228
H       -1.5464879543    4.7978471366   -1.5039104830
H       -1.9249862671    1.4976601540   -0.5065524983
18   
torsion grid (180,)
C       -0.5380731982    3.4516220801    1.8543848671
C       -1.1239704851    2.1695552518    2.4047322301
C       -1.5676647161    2.6959846887    1.0552244598
C        1.2487958854    2.4604871719   -1.3755377856
N       -0.3976032928    4.4765905578   -1.1688132742
N       -1.1461932345    1.9945715198   -0.1395403050
O       -1.1132368768    2.3603128622   -2.6374184401
S       -0.4713471481    2.9616628117   -1.4429399124
H       -0.8415860418    4.4021184858    2.2795477514
H        0.4877597010    3.4277906585    1.5061201312
H       -0.4944627994    1.2857083401    2.3905301880
H       -1.8338455681    2.2224620295    3.2249700038
H       -2.5552340654    3.1541795394    1.0125220868
H        1.2706449562    1.3750717339   -1.4666761615
H        1.7513392737    2.9399905442   -2.2162453932
H        1.6801060202    2.7877247126   -0.4305623387
H       -1.3180194243    4.9124214482   -1.2594065129
H       -1.9262260393    1.5207824781   -0.5963906435
