26
0 1 C7H14N2O3
C                    -1.828661779845     1.077386766565     1.788443343440
C                    -0.347705988264     0.879949336361    -0.822124814316
C                    -2.567748836528     0.874511701848     3.101016560577
C                    -2.712065706748     1.603399502807    -1.313744291596
C                     0.382868596805    -1.112470014400     0.579273062510
C                     2.503587983605     0.146514659595    -1.710195126406
C                    -1.849071197634     0.526385541587    -0.651144588321
N                    -2.256909121668     0.298218028744     0.741247734859
N                     0.568346923679    -0.079005268535    -0.426421267688
O                    -0.896970538305     1.868182220926     1.677272408578
O                    -0.011875980174     1.870927655796    -1.454056269310
O                     1.906505245106     0.359916937612    -0.423038962753
H                    -1.836535460481     0.817307052696     3.909991008993
H                    -3.197610261400     1.750153128247     3.286469407568
H                    -3.196720571631    -0.020372444177     3.116618308155
H                    -2.548523225202     2.565750531086    -0.825039887525
H                    -3.769735293401     1.329950894017    -1.232610751696
H                    -2.453452438182     1.712402599724    -2.368902699546
H                     1.125463193501    -1.893997083378     0.401359329155
H                    -0.612428581268    -1.545204345044     0.488310526890
H                     0.513746159785    -0.713237792420     1.591705363798
H                     3.547785919706     0.443912691209    -1.589106701519
H                     2.021369164844     0.772086658667    -2.465432110630
H                     2.448656468079    -0.911888033290    -1.994515104186
H                    -2.002159809842    -0.428514724484    -1.169722755177
H                    -3.114028276756    -0.224140680649     0.870908306674
