
  -OEChem-05262117483D

 30 30  0     1  0  0  0  0  0999 V2000
    5.4612   -1.9758   -1.3870 C   0  0  0  0  0  0  0  0  0  0  0  0
    5.4356   -2.3989   -0.0544 C   0  0  0  0  0  0  0  0  0  0  0  0
    4.5755   -0.9782   -1.8123 C   0  0  0  0  0  0  0  0  0  0  0  0
    4.5390   -1.8125    0.8474 C   0  0  0  0  0  0  0  0  0  0  0  0
    3.6833   -0.3939   -0.9098 C   0  0  0  0  0  0  0  0  0  0  0  0
    3.6681   -0.7938    0.4335 C   0  0  0  0  0  0  0  0  0  0  0  0
    2.6334    3.1044    0.6199 C   0  0  0  0  0  0  0  0  0  0  0  0
    3.0529    4.2272   -0.3068 C   0  0  0  0  0  0  0  0  0  0  0  0
    4.7576    0.9690    2.7145 C   0  0  0  0  0  0  0  0  0  0  0  0
    2.7678   -0.0924    1.4327 C   0  0  1  0  0  0  0  0  0  0  0  0
    3.4091    1.2010    2.0072 C   0  0  2  0  0  0  0  0  0  0  0  0
    3.6101    2.2444    1.0077 N   0  0  0  0  0  0  0  0  0  0  0  0
    1.4595    2.9871    1.0023 O   0  0  0  0  0  0  0  0  0  0  0  0
    5.8670    0.9353    1.8151 O   0  0  0  0  0  0  0  0  0  0  0  0
    1.5047    0.1700    0.8412 O   0  0  0  0  0  0  0  0  0  0  0  0
    6.1537   -2.4295   -2.0911 H   0  0  0  0  0  0  0  0  0  0  0  0
    6.1027   -3.1886    0.2815 H   0  0  0  0  0  0  0  0  0  0  0  0
    4.5783   -0.6599   -2.8518 H   0  0  0  0  0  0  0  0  0  0  0  0
    4.5111   -2.1609    1.8784 H   0  0  0  0  0  0  0  0  0  0  0  0
    2.9768    0.3616   -1.2374 H   0  0  0  0  0  0  0  0  0  0  0  0
    2.4175    4.2060   -1.1957 H   0  0  0  0  0  0  0  0  0  0  0  0
    2.8767    5.1803    0.1998 H   0  0  0  0  0  0  0  0  0  0  0  0
    4.1020    4.1723   -0.6086 H   0  0  0  0  0  0  0  0  0  0  0  0
    4.7070    0.0562    3.3214 H   0  0  0  0  0  0  0  0  0  0  0  0
    4.9563    1.8083    3.3851 H   0  0  0  0  0  0  0  0  0  0  0  0
    2.6284   -0.7600    2.2976 H   0  0  0  0  0  0  0  0  0  0  0  0
    2.7000    1.5885    2.7483 H   0  0  0  0  0  0  0  0  0  0  0  0
    4.5564    2.3449    0.6578 H   0  0  0  0  0  0  0  0  0  0  0  0
    5.8223    0.1050    1.3089 H   0  0  0  0  0  0  0  0  0  0  0  0
    1.2406    1.0951    1.0286 H   0  0  0  0  0  0  0  0  0  0  0  0
  1  2  1  0  0  0  0
  1  3  2  0  0  0  0
  1 16  1  0  0  0  0
  2  4  2  0  0  0  0
  2 17  1  0  0  0  0
  3  5  1  0  0  0  0
  3 18  1  0  0  0  0
  4  6  1  0  0  0  0
  4 19  1  0  0  0  0
  5  6  2  0  0  0  0
  5 20  1  0  0  0  0
  6 10  1  0  0  0  0
  7  8  1  0  0  0  0
  7 12  1  0  0  0  0
  7 13  2  0  0  0  0
  8 21  1  0  0  0  0
  8 22  1  0  0  0  0
  8 23  1  0  0  0  0
  9 11  1  0  0  0  0
  9 14  1  0  0  0  0
  9 24  1  0  0  0  0
  9 25  1  0  0  0  0
 10 11  1  0  0  0  0
 10 15  1  0  0  0  0
 10 26  1  0  0  0  0
 11 12  1  0  0  0  0
 11 27  1  0  0  0  0
 12 28  1  0  0  0  0
 14 29  1  0  0  0  0
 15 30  1  0  0  0  0
M  END
$$$$
