
  -OEChem-05262117483D

 26 26  0     1  0  0  0  0  0999 V2000
    1.5003   -1.2652    0.0487 C   0  0  0  0  0  0  0  0  0  0  0  0
    1.8354   -0.0643    0.6852 C   0  0  0  0  0  0  0  0  0  0  0  0
    1.3415   -2.4271    0.8107 C   0  0  0  0  0  0  0  0  0  0  0  0
    1.9989   -0.0316    2.0730 C   0  0  0  0  0  0  0  0  0  0  0  0
    1.5069   -2.3904    2.1996 C   0  0  0  0  0  0  0  0  0  0  0  0
    1.8305   -1.1914    2.8435 C   0  0  0  0  0  0  0  0  0  0  0  0
   -1.1386   -1.9696    4.4644 C   0  0  0  0  0  0  0  0  0  0  0  0
   -2.4452   -2.1987    3.7324 C   0  0  0  0  0  0  0  0  0  0  0  0
    0.7013   -0.3690    4.9404 C   0  0  0  0  0  0  0  0  0  0  0  0
    1.9311   -1.1168    4.3614 C   0  0  1  0  0  0  0  0  0  0  0  0
   -0.5868   -0.7328    4.3461 N   0  0  0  0  0  0  0  0  0  0  0  0
   -0.6120   -2.8705    5.1330 O   0  0  0  0  0  0  0  0  0  0  0  0
    2.1261   -2.3753    4.9814 O   0  0  0  0  0  0  0  0  0  0  0  0
    1.3758   -1.2957   -1.0307 H   0  0  0  0  0  0  0  0  0  0  0  0
    1.9770    0.8416    0.1008 H   0  0  0  0  0  0  0  0  0  0  0  0
    1.0941   -3.3666    0.3223 H   0  0  0  0  0  0  0  0  0  0  0  0
    2.2712    0.9049    2.5583 H   0  0  0  0  0  0  0  0  0  0  0  0
    1.3998   -3.2943    2.7910 H   0  0  0  0  0  0  0  0  0  0  0  0
   -2.2772   -2.9433    2.9492 H   0  0  0  0  0  0  0  0  0  0  0  0
   -3.1711   -2.6150    4.4350 H   0  0  0  0  0  0  0  0  0  0  0  0
   -2.8580   -1.2931    3.2806 H   0  0  0  0  0  0  0  0  0  0  0  0
    0.8208    0.7059    4.7870 H   0  0  0  0  0  0  0  0  0  0  0  0
    0.6626   -0.5542    6.0181 H   0  0  0  0  0  0  0  0  0  0  0  0
    2.8111   -0.5160    4.6228 H   0  0  0  0  0  0  0  0  0  0  0  0
   -0.9722   -0.1124    3.6476 H   0  0  0  0  0  0  0  0  0  0  0  0
    1.2408   -2.7560    5.1649 H   0  0  0  0  0  0  0  0  0  0  0  0
  1  2  1  0  0  0  0
  1  3  2  0  0  0  0
  1 14  1  0  0  0  0
  2  4  2  0  0  0  0
  2 15  1  0  0  0  0
  3  5  1  0  0  0  0
  3 16  1  0  0  0  0
  4  6  1  0  0  0  0
  4 17  1  0  0  0  0
  5  6  2  0  0  0  0
  5 18  1  0  0  0  0
  6 10  1  0  0  0  0
  7  8  1  0  0  0  0
  7 11  1  0  0  0  0
  7 12  2  0  0  0  0
  8 19  1  0  0  0  0
  8 20  1  0  0  0  0
  8 21  1  0  0  0  0
  9 10  1  0  0  0  0
  9 11  1  0  0  0  0
  9 22  1  0  0  0  0
  9 23  1  0  0  0  0
 10 13  1  0  0  0  0
 10 24  1  0  0  0  0
 11 25  1  0  0  0  0
 13 26  1  0  0  0  0
M  END
$$$$
