27
0 1 C13H11NO2
C                     1.971914987997    -0.958502433553    -0.182049533721
C                     1.648352561801     0.233708543291     0.473931967143
C                     2.306985161114    -2.095328120121     0.562653585446
C                    -0.705291704467     0.890696999594     7.805703896075
C                     0.263142194682     0.735406443970     8.805425334303
C                     1.643590358496     0.285645450274     1.869837825915
C                     2.313251206675    -2.042949588298     1.956566880348
C                    -0.365192374018     0.618532000089     6.483238584126
C                     1.545599492250     0.309003231809     8.471027861840
C                     1.966393627066    -0.856640202086     2.620837026741
C                     0.929726062592     0.204033692928     6.130877662070
C                     1.907322405847     0.045029625645     7.139702969779
C                     1.983995802086    -0.876793386977     4.116757283077
N                     1.195030411856     0.048101652814     4.738014392340
O                     2.674963161011    -1.702863450237     4.737438626368
O                     3.198713056124    -0.296068166949     6.897652334061
H                     1.973297119495    -0.998065896741    -1.268123887222
H                     1.411361553439     1.125212437588    -0.100274551665
H                     2.567500117947    -3.020441514305     0.055598553983
H                    -1.712579207326     1.212995470148     8.052191508076
H                     0.017436817725     0.941700485603     9.843597317835
H                     1.432277219189     1.233088752179     2.359606738738
H                     2.584363805002    -2.910043717932     2.550262736529
H                    -1.112179332066     0.727381498029     5.698774168871
H                     2.313382982384     0.180524788965     9.228234533602
H                     0.557356696196     0.554338761521     4.137276129421
H                     3.217972058531    -0.910478548622     6.119663259245
