20   
torsion grid (-165,)
C        1.8232164783   -0.9910969620   -0.1174769234
C        0.7514232629   -0.4260206784    0.5765027144
C        2.8185755778   -1.6477025022    1.9984048697
C        1.7525572792   -1.0835829126    2.7099659693
C        2.8457395127   -1.5924874123    0.6088485764
C        0.7246684435   -0.4763911379    1.9714307502
C        1.7344566321   -1.1684594696    4.2152747143
C        4.9962403915   -1.4731982835   -0.3478198973
O        0.8392064816   -2.2211145934    4.5926563057
O        3.8995960326   -2.2257125100   -0.0820877131
F        5.5981313901   -1.0132896551    0.7751423084
F        4.7141673550   -0.3901740375   -1.1099203982
F        5.8687635585   -2.2404634615   -1.0099495457
Br      -0.7773374646    0.3206991428    2.8597187328
H        1.8650130016   -0.9664721284   -1.2015318278
H       -0.0580213693    0.0500015009    0.0335372636
H        3.6277779766   -2.1397297876    2.5292184531
H        2.7504598627   -1.3747889650    4.5773612827
H        1.4093394425   -0.2085640995    4.6346301398
H        0.6412747876   -2.1253262403    5.5372991994
20   
torsion grid (-150,)
C        1.8009424719   -1.0149159543   -0.0900607523
C        0.7325619479   -0.4654743141    0.6224376767
C        2.8345050988   -1.6723099879    2.0081251252
C        1.7714755201   -1.1257951848    2.7369262177
C        2.8405826015   -1.6078074959    0.6182373018
C        0.7271613052   -0.5245268958    2.0165890757
C        1.7715743457   -1.2182441091    4.2428341128
C        4.9752189961   -1.4570380543   -0.3688367033
O        0.8405284538   -2.2318792586    4.6408405427
O        3.8918466915   -2.2244715949   -0.0911696957
F        5.5865303206   -0.9938432638    0.7475650247
F        4.6689157806   -0.3747959899   -1.1227018022
F        5.8480637848   -2.2106038813   -1.0460011529
Br      -0.7646994864    0.2594105889    2.9346985274
H        1.8266653086   -0.9842947819   -1.1744504634
H       -0.0892631244    0.0055553771    0.0938311116
H        3.6569095723   -2.1583601548    2.5240751969
H        2.7810719554   -1.4729211033    4.5901393251
H        1.4998087204   -0.2453668203    4.6688418581
H        0.4819770545   -1.9951496520    5.5092363742
20   
torsion grid (-135,)
C        1.8617756374   -0.9866068042   -0.1415071725
C        0.7813388976   -0.4301603137    0.5474781796
C        2.8519328628   -1.6382315372    1.9793784755
C        1.7763482766   -1.0858051182    2.6846258932
C        2.8854413090   -1.5797811398    0.5894095500
C        0.7493106081   -0.4837293822    1.9410650641
C        1.7437669020   -1.1710672598    4.1921738556
C        5.0388009966   -1.4398328142   -0.3579328948
O        0.7836063091   -2.1558198078    4.5944594720
O        3.9482722882   -2.2029822820   -0.0965547192
F        5.6294198967   -0.9711504387    0.7671969987
F        4.7497315154   -0.3616081334   -1.1242727797
F        5.9226126223   -2.1996614137   -1.0134288793
Br      -0.7571169896    0.3103453408    2.8293835286
H        1.9086147483   -0.9612476763   -1.2252971728
H       -0.0282478678    0.0415208253    0.0008473810
H        3.6626413456   -2.1245912989    2.5133821525
H        2.7364140754   -1.4586095778    4.5587596219
H        1.5005780645   -0.1879867861    4.6097858822
H        0.2536536694   -1.7946468362    5.3194142546
20   
torsion grid (-120,)
C        1.8506456765   -0.9966160217   -0.1244118999
C        0.7737292709   -0.4450034403    0.5740090561
C        2.8626913577   -1.6449351126    1.9882095147
C        1.7913626893   -1.0974292835    2.7036465655
C        2.8828313289   -1.5858910848    0.5978665020
C        0.7567379543   -0.5004729729    1.9674605159
C        1.7691098957   -1.1850199686    4.2132968536
C        5.0264120549   -1.4361293883   -0.3700377896
O        0.8235222973   -2.1720494891    4.6428447192
O        3.9418911855   -2.2043156446   -0.0978272566
F        5.6251974161   -0.9639414586    0.7491588668
F        4.7247697014   -0.3598567785   -1.1342788034
F        5.9073907629   -2.1922300683   -1.0333966230
Br      -0.7481093428    0.2814262783    2.8729155637
H        1.8880925035   -0.9710042555   -1.2085372809
H       -0.0431520002    0.0230792689    0.0351168294
H        3.6808996775   -2.1274229605    2.5143257498
H        2.7616061940   -1.4818051302    4.5688580822
H        1.5394910336   -0.2028561617    4.6391295080
H        0.1560622593   -1.7429782000    5.1967447220
20   
torsion grid (-105,)
C        1.8579284078   -0.9961545472   -0.1248142894
C        0.7799651929   -0.4440907579    0.5716054492
C        2.8693254821   -1.6393291352    1.9900397601
C        1.7972999142   -1.0907611942    2.7038523906
C        2.8901743158   -1.5831163018    0.5995788495
C        0.7635253780   -0.4966259446    1.9649997727
C        1.7725620883   -1.1750082320    4.2156782751
C        5.0334741059   -1.4328623907   -0.3690160919
O        0.8313434532   -2.1530890481    4.6692984928
O        3.9500726004   -2.2020045062   -0.0940515133
F        5.6309327172   -0.9554095296    0.7485005164
F        4.7298253311   -0.3601266578   -1.1373888876
F        5.9157196728   -2.1899462749   -1.0293153929
Br      -0.7449943756    0.2833539783    2.8706952261
H        1.8960339524   -0.9731126122   -1.2089482959
H       -0.0374704995    0.0214073026    0.0313059814
H        3.6879343349   -2.1199137108    2.5173511140
H        2.7589175523   -1.4883314181    4.5698367245
H        1.5608251770   -0.1893799253    4.6433422191
H        0.0529606744   -1.6931407442    5.0163292572
20   
torsion grid (-90,)
C        1.8622953456   -0.9946163118   -0.1236631631
C        0.7838363847   -0.4405484116    0.5700940350
C        2.8718553460   -1.6326818925    1.9940819757
C        1.8000340373   -1.0804180511    2.7059409014
C        2.8936363725   -1.5801799240    0.6035760048
C        0.7676741925   -0.4889388272    1.9636343986
C        1.7745326351   -1.1583703951    4.2196983243
C        5.0368330610   -1.4331988912   -0.3659060348
O        0.8376443325   -2.1264222290    4.6964303140
O        3.9534977735   -2.2015855015   -0.0873577465
F        5.6337851356   -0.9504968582    0.7494339399
F        4.7324617997   -0.3642098087   -1.1391483431
F        5.9191175612   -2.1930053023   -1.0227186155
Br      -0.7450526960    0.2891634615    2.8678644316
H        1.9013812991   -0.9748247409   -1.2078051699
H       -0.0337960089    0.0225801427    0.0280680310
H        3.6900348645   -2.1122020119    2.5230292794
H        2.7556364372   -1.4821190696    4.5752322122
H        1.5741206171   -0.1679848325    4.6440412963
H       -0.0169029786   -1.6843952870    4.8193456971
20   
torsion grid (-75,)
C        1.8812527155   -0.9808969565   -0.1380092835
C        0.8004879273   -0.4190231217    0.5451776632
C        2.8710670435   -1.6135198190    1.9916693183
C        1.7978330237   -1.0510543021    2.6942156630
C        2.9034684487   -1.5678997224    0.6012831222
C        0.7747749570   -0.4600285384    1.9390011271
C        1.7645882568   -1.1171046206    4.2093068341
C        5.0530684283   -1.4354847141   -0.3558935035
O        0.8230910709   -2.0694551299    4.7039494262
O        3.9654075417   -2.1983094966   -0.0775468634
F        5.6436671282   -0.9446519493    0.7590400202
F        4.7566225060   -0.3727213562   -1.1406691501
F        5.9371052462   -2.2037960634   -1.0000236897
Br      -0.7458822725    0.3225273372    2.8275318050
H        1.9288492003   -0.9667718402   -1.2218964748
H       -0.0118476325    0.0441366930   -0.0047166627
H        3.6831430913   -2.0944810349    2.5285558880
H        2.7389018331   -1.4461173953    4.5757708378
H        1.5694150273   -0.1189430466    4.6206236671
H       -0.0660426274   -1.6935114821    4.5966223676
20   
torsion grid (-60,)
C        1.8479108418   -0.9983995236   -0.1083823932
C        0.7740701103   -0.4396688470    0.5875672264
C        2.8638742786   -1.6295402317    2.0081175596
C        1.7987051839   -1.0686471728    2.7251690906
C        2.8806170133   -1.5837007602    0.6177251900
C        0.7646868652   -0.4801364435    1.9819686496
C        1.7919033039   -1.1299885389    4.2408093705
C        5.0183828688   -1.4464996240   -0.3649954463
O        0.8632373114   -2.0771310304    4.7681902823
O        3.9354803239   -2.2117040601   -0.0738626997
F        5.6211494935   -0.9549466646    0.7429505394
F        4.7100777302   -0.3841635905   -1.1456696111
F        5.8959765613   -2.2128135545   -1.0199530345
Br      -0.7505044980    0.2945594744    2.8862584718
H        1.8823728823   -0.9834062782   -1.1927351066
H       -0.0462442746    0.0210750344    0.0476080618
H        3.6831936564   -2.1090754325    2.5350446213
H        2.7724405493   -1.4525331202    4.5951310432
H        1.5988834354   -0.1278391982    4.6459667489
H       -0.0262279452   -1.8236459063    4.4703919648
20   
torsion grid (-45,)
C        1.8139156259   -1.0118235441   -0.0784594490
C        0.7463510630   -0.4509859767    0.6247511068
C        2.8440848815   -1.6433766172    2.0305255293
C        1.7854511719   -1.0780642714    2.7550314456
C        2.8508753875   -1.5991798012    0.6403418224
C        0.7451274444   -0.4890072131    2.0198310113
C        1.7935323523   -1.1374117746    4.2690674590
C        4.9811423511   -1.4667877106   -0.3591116257
O        0.9025371721   -2.1157806896    4.8102713669
O        3.8991061846   -2.2299322090   -0.0583836077
F        5.5935990493   -0.9756257226    0.7435061803
F        4.6679932996   -0.4046356492   -1.1379998711
F        5.8516811245   -2.2352968628   -1.0206783202
Br      -0.7658137427    0.2814721761    2.9314311008
H        1.8407133545   -0.9971415890   -1.1630514591
H       -0.0769611390    0.0107105612    0.0902693195
H        3.6660524694   -2.1236242298    2.5525298275
H        2.7888664988   -1.4169982169    4.6191685989
H        1.5590841624   -0.1431124523    4.6717092646
H        0.0537496980   -2.0490080261    4.3438263017
20   
torsion grid (-30,)
C        1.8259894842   -0.9871180847   -0.0829672534
C        0.7630935624   -0.4051004554    0.6094560897
C        2.8383505389   -1.6121066295    2.0353886496
C        1.7839762675   -1.0246389405    2.7495884376
C        2.8521069015   -1.5824603793    0.6452615383
C        0.7522727784   -0.4291611742    2.0055981598
C        1.7833795105   -1.0783039992    4.2614094174
C        4.9895382874   -1.4898833757   -0.3435321756
O        0.9348785436   -2.1024220674    4.7951942769
O        3.8941296799   -2.2342504460   -0.0431330106
F        5.6044160551   -1.0016260133    0.7589037343
F        4.6964440160   -0.4279589376   -1.1303023278
F        5.8508474125   -2.2760785289   -0.9962145712
Br      -0.7540514020    0.3663323902    2.8981272332
H        1.8580221893   -0.9824520421   -1.1675376804
H       -0.0507299475    0.0630319764    0.0661489815
H        3.6510837700   -2.0973418649    2.5670990503
H        2.7913764805   -1.2965080521    4.6214501945
H        1.4829647755   -0.1019688257    4.6612520340
H        0.1958279918   -2.2446349624    4.1837513143
20   
torsion grid (-15,)
C        1.9091098758   -1.0892678403   -0.1125718457
C        0.8362359053   -0.5095278679    0.5661939035
C        2.8899920005   -1.7203993109    2.0181626151
C        1.8239836352   -1.1367887023    2.7186531425
C        2.9207447134   -1.6938952083    0.6282493954
C        0.8004611594   -0.5410160011    1.9621359262
C        1.8043382471   -1.1952932248    4.2285774180
C        3.9610830886   -3.5355161454   -0.4094269168
O        0.9603683225   -2.2340949991    4.7458525201
O        4.0383027288   -2.2303685464   -0.0409436968
F        2.9358235743   -3.7748698029   -1.2606869935
F        3.7936524787   -4.3644708088    0.6468216416
F        5.1044468399   -3.8549876758   -1.0230495631
Br      -0.7126602237    0.2607998976    2.8315855624
H        1.9617838714   -1.0718310082   -1.1962008299
H        0.0343602733   -0.0332262566    0.0123182770
H        3.7007596314   -2.1964918684    2.5610994980
H        2.8156715562   -1.3878690540    4.5980444940
H        1.4722978798   -0.2317791120    4.6315631212
H        0.3801719635   -2.5502782640    4.0372737516
20   
torsion grid (0,)
C        1.9011124359   -1.0793762976   -0.1149310886
C        0.8326042093   -0.4895012425    0.5624909872
C        2.8797133219   -1.7067368478    2.0176153411
C        1.8166775577   -1.1158119733    2.7164301418
C        2.9097895916   -1.6865742143    0.6273170688
C        0.7961687414   -0.5151534140    1.9585711011
C        1.7965508742   -1.1747843524    4.2257068441
C        3.9401005064   -3.5393869575   -0.3999849193
O        0.9208919799   -2.1889566421    4.7406941097
O        4.0239709701   -2.2324167138   -0.0401691935
F        2.9125382911   -3.7798057049   -1.2480488538
F        3.7700334602   -4.3608123839    0.6622676826
F        5.0810400634   -3.8687176474   -1.0126828768
Br      -0.7047852405    0.3076951662    2.8247980074
H        1.9528244737   -1.0668360012   -1.1986943404
H        0.0342396453   -0.0092199764    0.0069423219
H        3.6890955130   -2.1837365592    2.5619346088
H        2.8086950528   -1.3811709838    4.5899347309
H        1.4773485776   -0.2110133827    4.6352680544
H        0.5026909429   -2.6497743818    3.9984090879
20   
torsion grid (15,)
C        1.8796939152   -0.6176500966    0.0256602518
C        0.8841378945   -0.0755259621    0.8398797735
C        2.8968698339   -1.6409569117    1.9807480760
C        1.9016037006   -1.1107885846    2.8148612729
C        2.8730562794   -1.3967698301    0.6119767511
C        0.9038161653   -0.3243911969    2.2140892027
C        1.9567395580   -1.3757736524    4.3017161043
C        3.7446874790   -3.1220577289   -0.7364844439
O        2.4896822866   -0.2778026358    5.0563857273
O        3.9205299352   -1.8914035456   -0.1895110560
F        3.5868276089   -4.0882024506    0.1980617716
F        4.8315335554   -3.4058426626   -1.4604539622
F        2.6616859766   -3.1806293466   -1.5464220045
Br      -0.4845440860    0.4650084816    3.2808072452
H        1.8874379023   -0.4384752031   -1.0444956826
H        0.0988232788    0.5356210208    0.4080517971
H        3.6950748121   -2.2442069425    2.4022932320
H        0.9519274727   -1.6090991383    4.6720622602
H        2.5985313904   -2.2404048702    4.4934060470
H        2.4951899059    0.5142896940    4.4985596940
20   
torsion grid (30,)
C        1.8831940574   -0.6287137134    0.0113295345
C        0.8916899071   -0.0809488079    0.8266949807
C        2.9026505328   -1.6460671376    1.9680190201
C        1.9102366706   -1.1122347435    2.8029006638
C        2.8762975618   -1.4076892720    0.5983368317
C        0.9143577252   -0.3255666634    2.2013029857
C        1.9640343696   -1.3753950668    4.2916937558
C        3.7410142346   -3.1389785460   -0.7469427070
O        2.5009716667   -0.2814080183    5.0455434148
O        3.9210452564   -1.9074282641   -0.2037233779
F        3.5819469932   -4.1022758396    0.1903932804
F        4.8258527311   -3.4278921614   -1.4719332382
F        2.6565250025   -3.1970368553   -1.5551049311
Br      -0.4653627031    0.4799598669    3.2718257502
H        1.8886317688   -0.4532956990   -1.0594357899
H        0.1077372323    0.5320917794    0.3951417220
H        3.7013987878   -2.2484575772    2.3897161509
H        0.9581407741   -1.6185205818    4.6557368202
H        2.6123798500   -2.2319526771    4.4898499330
H        2.2944221046    0.5460781689    4.5841643270
20   
torsion grid (45,)
C        1.8995507416   -0.6081506749    0.0199571976
C        0.9246488541   -0.0493211278    0.8482156012
C        2.9326838301   -1.6364795118    1.9649682167
C        1.9578507259   -1.0914857296    2.8122433294
C        2.8904207562   -1.3981642645    0.5952874638
C        0.9638808888   -0.2961569661    2.2212547156
C        2.0207871704   -1.3598035563    4.3021921180
C        3.7170972389   -3.1383363762   -0.7622419467
O        2.5016537397   -0.2508715306    5.0657221800
O        3.9193163153   -1.9102228426   -0.2195904258
F        3.5548958723   -4.1008124212    0.1755432317
F        4.7902804530   -3.4409407110   -1.4990074140
F        2.6234844748   -3.1809773764   -1.5591679690
Br      -0.3954588495    0.5208069638    3.3132100630
H        1.8938736896   -0.4324353855   -1.0507274235
H        0.1422349663    0.5730816175    0.4273584066
H        3.7310489887   -2.2472098534    2.3753086419
H        1.0278923816   -1.6660860517    4.6572545333
H        2.7161612433   -2.1781308972    4.4977225426
H        2.0616484294    0.5540743574    4.7480371819
20   
torsion grid (60,)
C        1.8986589597   -0.6609063341   -0.0384910410
C        0.9163336070   -0.0912304758    0.7740973626
C        2.9138621149   -1.6615250568    1.9298752570
C        1.9329974072   -1.1042988973    2.7611207982
C        2.8840271817   -1.4429530368    0.5562527694
C        0.9441626284   -0.3191039174    2.1501097021
C        1.9823392169   -1.3485485448    4.2572940788
C        3.7237907838   -3.2026495237   -0.7678052890
O        2.4148446081   -0.2122841095    5.0052358752
O        3.9202659966   -1.9664321381   -0.2423280877
F        3.5539542997   -4.1511617370    0.1829797189
F        4.8037192993   -3.5157867315   -1.4903603062
F        2.6373631402   -3.2587020857   -1.5737714532
Br      -0.4295575411    0.5065955067    3.2204058449
H        1.9025801329   -0.4994053892   -1.1114037938
H        0.1376301329    0.5251229307    0.3377257586
H        3.7090142175   -2.2661965268    2.3552775895
H        0.9989166528   -1.6919848996    4.6045133591
H        2.7081690577   -2.1346708274    4.4723444665
H        1.7915348072    0.5136083639    4.8360338444
20   
torsion grid (75,)
C        1.9041073821   -0.6551179007   -0.0392814593
C        0.9260923067   -0.0818168802    0.7764102056
C        2.9250328399   -1.6596083162    1.9251853700
C        1.9506113861   -1.0972498130    2.7594645120
C        2.8890777523   -1.4404061654    0.5515482732
C        0.9616478248   -0.3102115396    2.1517999801
C        2.0064886369   -1.3319366779    4.2571227141
C        3.7166259274   -3.2032372531   -0.7759911191
O        2.4444394878   -0.1842743268    4.9843285619
O        3.9198978684   -1.9678322978   -0.2517845442
F        3.5475545787   -4.1511451601    0.1757153451
F        4.7922811913   -3.5206698747   -1.5032640385
F        2.6265155989   -3.2558794461   -1.5772944119
Br      -0.4084319118    0.5128925543    3.2288081329
H        1.9045428476   -0.4939156706   -1.1122405540
H        0.1469136280    0.5361533374    0.3430370800
H        3.7200048752   -2.2670424379    2.3471479182
H        1.0290375909   -1.6773165921    4.6161672998
H        2.7375252907   -2.1141698539    4.4705784381
H        1.7114211863    0.4525906588    5.0060838769
20   
torsion grid (90,)
C        1.9011568384   -0.6783498124   -0.0726614844
C        0.9160879634   -0.0991561075    0.7308023591
C        2.9105513534   -1.6623774556    1.9078418947
C        1.9300837599   -1.0916655172    2.7285211440
C        2.8834112219   -1.4563163453    0.5317874684
C        0.9423713106   -0.3127459772    2.1085800467
C        1.9778202687   -1.3055621645    4.2285787177
C        3.7239552100   -3.2320074700   -0.7702717687
O        2.4176803354   -0.1396488167    4.9281013525
O        3.9202538453   -1.9898869706   -0.2601513801
F        3.5541800252   -4.1694449021    0.1918751788
F        4.8041347451   -3.5543576573   -1.4889086428
F        2.6377315559   -3.2987367934   -1.5758449784
Br      -0.4395654743    0.5118090344    3.1677012285
H        1.9085224094   -0.5275536454   -1.1471285174
H        0.1382281400    0.5119193489    0.2854638570
H        3.7033984679   -2.2643049987    2.3416591316
H        1.0002506023   -1.6424184368    4.5918440817
H        2.7058149077   -2.0888893877    4.4526709127
H        1.6376651045    0.3946005163    5.1446847679
20   
torsion grid (105,)
C        1.9019635977   -0.6723615252   -0.0725703932
C        0.9196319617   -0.0922895120    0.7338644109
C        2.9172582442   -1.6550512921    1.9054452069
C        1.9410577783   -1.0816584037    2.7287342839
C        2.8854103226   -1.4504686993    0.5291625453
C        0.9502774682   -0.3033554365    2.1119406164
C        1.9951750760   -1.2928275140    4.2274077341
C        3.7203797901   -3.2289230635   -0.7724721131
O        2.4330626725   -0.1118427753    4.9066211772
O        3.9192100375   -1.9860801771   -0.2657653920
F        3.5537548617   -4.1645679677    0.1921836759
F        4.7978155029   -3.5535253683   -1.4944857205
F        2.6312096648   -3.2970717943   -1.5739856101
Br      -0.4326141601    0.5149613893    3.1711897015
H        1.9056198204   -0.5225566784   -1.1472179477
H        0.1396944048    0.5173409742    0.2901498481
H        3.7113112425   -2.2567740521    2.3373554495
H        1.0186934199   -1.6255824128    4.5949383455
H        2.7216426511   -2.0800830875    4.4488290173
H        1.6664562797    0.3017786566    5.3297563724
20   
torsion grid (120,)
C        1.8976004494   -0.7009063186   -0.1162526074
C        0.9040654769   -0.1141470822    0.6715138998
C        2.8945074090   -1.6517285671    1.8863092305
C        1.9069881806   -1.0704382305    2.6901139211
C        2.8770599183   -1.4666712133    0.5069785295
C        0.9188514921   -0.3045383426    2.0529658078
C        1.9464878756   -1.2608721081    4.1899025586
C        3.7340973474   -3.2604617937   -0.7585967405
O        2.3695594850   -0.0545781077    4.8366364129
O        3.9218321964   -2.0092902417   -0.2688994951
F        3.5623056768   -4.1824632782    0.2183719691
F        4.8203886056   -3.5907761980   -1.4647790537
F        2.6534816999   -3.3463926258   -1.5699366941
Br      -0.4815938051    0.5175035461    3.0820350728
H        1.9124189032   -0.5658984865   -1.1927953172
H        0.1262380677    0.4851566860    0.2104046941
H        3.6861692287   -2.2436503633    2.3357047386
H        0.9636822625   -1.5818978333    4.5505798355
H        2.6667799659   -2.0502900281    4.4295404721
H        1.6684953702    0.2401287143    5.4350300145
20   
torsion grid (135,)
C        1.8923139082   -0.7244838183   -0.1496409063
C        0.8884631749   -0.1339032974    0.6218023053
C        2.8748932329   -1.6457392387    1.8731367285
C        1.8766040607   -1.0604762906    2.6606334828
C        2.8698866267   -1.4774402244    0.4917088857
C        0.8898746280   -0.3067344027    2.0060494560
C        1.9029016033   -1.2359212624    4.1604755449
C        3.7499520660   -3.2823116584   -0.7418564230
O        2.3277605430   -0.0138993117    4.7765494658
O        3.9250546391   -2.0234939496   -0.2678061262
F        3.5768035280   -4.1924234512    0.2461291690
F        4.8442256898   -3.6146500215   -1.4348432012
F        2.6765479685   -3.3870432436   -1.5605335997
Br      -0.5251626420    0.5191745233    3.0079234599
H        1.9162555322   -0.6024862537   -1.2276017159
H        0.1118422481    0.4554297805    0.1460919269
H        3.6654062532   -2.2274121563    2.3375325413
H        0.9088283443   -1.5310351381    4.5139442586
H        2.6053825690   -2.0380311706    4.4163629179
H        1.7470747974    0.1726790606    5.5281792114
20   
torsion grid (150,)
C        1.8839087539   -0.7493610599   -0.1803426085
C        0.8664624038   -0.1584648294    0.5723649134
C        2.8491028538   -1.6395366360    1.8631585622
C        1.8353171104   -1.0543093395    2.6313560466
C        2.8606689172   -1.4867107301    0.4803033689
C        0.8501956367   -0.3139732135    1.9589791916
C        1.8484995922   -1.2150075183    4.1314625944
C        3.7720235019   -3.2976333891   -0.7213950018
O        2.3150377015    0.0055786289    4.7198435004
O        3.9296988305   -2.0317246850   -0.2605750097
F        3.5976763962   -4.1979007809    0.2754552896
F        4.8767099789   -3.6272265723   -1.3990944416
F        2.7082998874   -3.4229097071   -1.5497890995
Br      -0.5789965273    0.5189563064    2.9326464341
H        1.9192243854   -0.6396548766   -1.2593280842
H        0.0915224070    0.4194764003    0.0803312281
H        3.6379686055   -2.2095869592    2.3443475408
H        0.8391187668   -1.4604149612    4.4813560674
H        2.5146227499   -2.0441657302    4.4021026282
H        1.9027222531    0.1035765651    5.5911084102
20   
torsion grid (165,)
C        1.8775272861   -0.7295333637   -0.1642862874
C        0.8591440773   -0.1443907405    0.5907428682
C        2.8467876132   -1.6217310294    1.8775083103
C        1.8311403233   -1.0430203678    2.6485432296
C        2.8567069562   -1.4648023105    0.4954605229
C        0.8439241666   -0.3040151229    1.9775469414
C        1.8465804086   -1.2105008704    4.1470653774
C        3.7741608017   -3.2698443785   -0.7101286124
O        2.3469331973   -0.0001931208    4.7274204960
O        3.9273507272   -2.0042642988   -0.2471265417
F        3.6052065951   -4.1728101513    0.2853253935
F        4.8792111099   -3.5936310058   -1.3901369058
F        2.7096927828   -3.3980295888   -1.5370293454
Br      -0.5868082415    0.5245635308    2.9503958358
H        1.9119336076   -0.6174629750   -1.2430947807
H        0.0822022595    0.4328634964    0.1011103141
H        3.6381531564   -2.1900195751    2.3565763995
H        0.8315045611   -1.4247790928    4.5035169887
H        2.4892405860   -2.0614134058    4.4093165278
H        2.1379207240   -0.0096925401    5.6745595784
20   
torsion grid (180,)
C        1.8676794845   -0.7900917028   -0.2307028991
C        0.8255798170   -0.2030548128    0.4890648869
C        2.7985345612   -1.6356249661    1.8467912825
C        1.7576528375   -1.0564742935    2.5837892772
C        2.8401270247   -1.5028971640    0.4632712065
C        0.7788654935   -0.3392040403    1.8781911895
C        1.7444273940   -1.1995883165    4.0845430435
C        3.8095793010   -3.3198703843   -0.6832457934
O        2.2824428437    0.0025851662    4.6487697871
O        3.9338868147   -2.0422781516   -0.2454962739
F        3.6364215965   -4.2036923410    0.3285434764
F        4.9319002859   -3.6406201346   -1.3355571615
F        2.7625171147   -3.4832989628   -1.5262314712
Br      -0.6797353783    0.4962640547    2.8024136353
H        1.9258932338   -0.6961964401   -1.3102103899
H        0.0550378537    0.3578529089   -0.0288350959
H        3.5843973762   -2.1863852720    2.3544163174
H        0.7191213825   -1.3714795357    4.4348793011
H        2.3538911813   -2.0689067139    4.3652337237
H        2.2739505531   -0.0894803094    5.6146901166
