
  -OEChem-05262117483D

 31 32  0     1  0  0  0  0  0999 V2000
   -4.7354   -6.4578    3.0016 C   0  0  0  0  0  0  0  0  0  0  0  0
   -2.5621   -5.6200    3.7866 C   0  0  0  0  0  0  0  0  0  0  0  0
   -1.4218   -4.8481    3.5570 C   0  0  0  0  0  0  0  0  0  0  0  0
   -1.3829    0.0023    1.1900 C   0  0  0  0  0  0  0  0  0  0  0  0
   -2.3634   -4.2494    1.4393 C   0  0  0  0  0  0  0  0  0  0  0  0
   -1.3066   -1.0540    2.0717 C   0  0  0  0  0  0  0  0  0  0  0  0
   -0.1733   -1.4836    0.2225 C   0  0  0  0  0  0  0  0  0  0  0  0
   -3.5471   -5.6593    2.7940 C   0  0  0  0  0  0  0  0  0  0  0  0
   -1.3023   -4.1409    2.3591 C   0  0  0  0  0  0  0  0  0  0  0  0
    3.1202   -2.0577    3.8893 C   0  0  0  0  0  0  0  0  0  0  0  0
    2.1119   -2.2109    2.7459 C   0  0  0  0  0  0  0  0  0  0  0  0
    0.9125   -3.0771    3.1446 C   0  0  0  0  0  0  0  0  0  0  0  0
   -0.0905   -3.2874    1.9992 C   0  0  2  0  0  0  0  0  0  0  0  0
   -5.6750   -7.1131    3.2091 N   0  0  0  0  0  0  0  0  0  0  0  0
   -0.6722   -0.2758    0.0398 N   0  0  0  0  0  0  0  0  0  0  0  0
   -3.4567   -4.9855    1.6325 N   0  0  0  0  0  0  0  0  0  0  0  0
   -0.5298   -2.0093    1.4382 N   0  0  0  0  0  0  0  0  0  0  0  0
   -2.6911   -6.1798    4.7075 H   0  0  0  0  0  0  0  0  0  0  0  0
   -0.6468   -4.8056    4.3146 H   0  0  0  0  0  0  0  0  0  0  0  0
   -1.9118    0.9382    1.3164 H   0  0  0  0  0  0  0  0  0  0  0  0
   -2.3233   -3.6995    0.5007 H   0  0  0  0  0  0  0  0  0  0  0  0
   -1.7358   -1.2194    3.0494 H   0  0  0  0  0  0  0  0  0  0  0  0
    0.4492   -2.0289   -0.4766 H   0  0  0  0  0  0  0  0  0  0  0  0
    2.6566   -1.5865    4.7635 H   0  0  0  0  0  0  0  0  0  0  0  0
    3.5174   -3.0291    4.2055 H   0  0  0  0  0  0  0  0  0  0  0  0
    3.9667   -1.4338    3.5860 H   0  0  0  0  0  0  0  0  0  0  0  0
    2.6085   -2.6577    1.8745 H   0  0  0  0  0  0  0  0  0  0  0  0
    1.7607   -1.2236    2.4292 H   0  0  0  0  0  0  0  0  0  0  0  0
    0.3995   -2.6231    4.0013 H   0  0  0  0  0  0  0  0  0  0  0  0
    1.2730   -4.0591    3.4729 H   0  0  0  0  0  0  0  0  0  0  0  0
    0.4381   -3.7950    1.1832 H   0  0  0  0  0  0  0  0  0  0  0  0
  1  8  1  0  0  0  0
  1 14  3  0  0  0  0
  2  3  1  0  0  0  0
  2  8  2  0  0  0  0
  2 18  1  0  0  0  0
  3  9  2  0  0  0  0
  3 19  1  0  0  0  0
  4  6  2  0  0  0  0
  4 15  1  0  0  0  0
  4 20  1  0  0  0  0
  5  9  1  0  0  0  0
  5 16  2  0  0  0  0
  5 21  1  0  0  0  0
  6 17  1  0  0  0  0
  6 22  1  0  0  0  0
  7 15  2  0  0  0  0
  7 17  1  0  0  0  0
  7 23  1  0  0  0  0
  8 16  1  0  0  0  0
  9 13  1  0  0  0  0
 10 11  1  0  0  0  0
 10 24  1  0  0  0  0
 10 25  1  0  0  0  0
 10 26  1  0  0  0  0
 11 12  1  0  0  0  0
 11 27  1  0  0  0  0
 11 28  1  0  0  0  0
 12 13  1  0  0  0  0
 12 29  1  0  0  0  0
 12 30  1  0  0  0  0
 13 17  1  0  0  0  0
 13 31  1  0  0  0  0
M  END
$$$$
