34
0 1 C11H18N2O3
C                     3.027873718269     1.074060993631    -1.276526819152
C                     0.741816044725     0.338991958343    -1.185608490996
C                     3.437110046000    -0.229309736560    -1.014869564517
C                     1.662185942018     1.378160763570    -1.368792951081
C                     2.428299645214    -1.209838753458    -0.854815646690
C                     4.902343950902    -0.574450533004    -0.904788036195
C                     0.271509841076     6.737534279956    -1.002223911966
C                     0.332449809280     4.577605438939     1.454165554987
C                     2.770813537190    -2.652056016205    -0.572696167672
C                    -0.152705620202     4.528676481057    -1.889641034166
C                    -0.041404518330     3.030783473247    -1.673925558516
N                     1.126008235444    -0.922208581721    -0.937904120668
N                     0.380099491838     5.299267727261    -0.765852903499
O                     3.475284609514    -3.198514503542    -1.702882849873
O                     1.343909043637     2.678372824408    -1.630911764663
O                    -0.482347223611     5.008011289312     0.364078133192
H                     3.750369455406     1.875476838815    -1.409386346582
H                    -0.329599343317     0.508390706493    -1.240984499504
H                     5.127414925087    -1.036904567071     0.063393154376
H                     5.189535630526    -1.293519948245    -1.675960541231
H                     5.523971627090     0.319577975805    -1.002280793224
H                     0.632678854302     7.271312395425    -0.119976861697
H                    -0.761045106286     7.056801311232    -1.215593021155
H                     0.912758296963     6.997394432908    -1.850309604601
H                    -0.359897765522     4.359045138355     2.272254414094
H                     1.029766776140     5.365938129020     1.764336442770
H                     0.902900651589     3.679223860185     1.192529705570
H                     3.397959314578    -2.723550577337     0.329556972098
H                     1.833729609448    -3.189770463982    -0.392858155475
H                     0.422702940516     4.812970777867    -2.776610382485
H                    -1.213537120065     4.769574425932    -2.075430697160
H                    -0.536027044530     2.506241950194    -2.502408601063
H                    -0.536136012701     2.749308838994    -0.738336170096
H                     3.710192368908    -4.115096052935    -1.489955735950
