31
0 1 C13H14N4
C                    -4.533496311760    -6.571211998771     4.133121024671
C                    -3.065141192667    -5.570875937088     2.429884795548
C                    -1.927271614090    -4.830846839136     2.127242887657
C                    -0.379431606697    -0.221559872809     1.370822684357
C                    -1.514761547421    -4.639146361950     4.475558445249
C                     0.260839231336    -1.441309660330     1.361640036265
C                    -1.270769143554    -1.368387426709     2.954290245973
C                    -3.359266395527    -5.801824884727     3.782600279323
C                    -1.118125527046    -4.348186919419     3.162568786814
C                     2.935644009608    -4.576871697694     5.336638899225
C                     1.865610932984    -4.729301394314     4.250205017436
C                     1.168353969528    -3.401336391242     3.932132333832
C                     0.106753231213    -3.509560179464     2.826409598749
N                    -5.485348151965    -7.197443601360     4.371901593940
N                    -1.333454454618    -0.187341813838     2.367043345456
N                    -2.604133055952    -5.346324043413     4.793836312024
N                    -0.323533162697    -2.177718461189     2.378449093469
H                    -3.715400578642    -5.961562539794     1.653818554920
H                    -1.671750761891    -4.618795047820     1.091686494783
H                    -0.213381714190     0.624071951016     0.715669748002
H                    -0.930661917781    -4.287787929077     5.322040789145
H                     1.051295054472    -1.847836902373     0.745920724178
H                    -1.890108572815    -1.697274000074     3.778391431335
H                     3.704672087498    -3.856084096966     5.037268153179
H                     2.496671187661    -4.222666899981     6.276086375811
H                     3.431410685730    -5.531275733126     5.539680607138
H                     1.132033923425    -5.480154505188     4.563910158098
H                     2.326399842165    -5.119351793719     3.333001594860
H                     1.913139269916    -2.673722288078     3.591353989645
H                     0.724441998000    -2.969699955141     4.836387663205
H                     0.582235290700    -3.973163718727     1.954896045640
