68
0 1 C30H29N3O5S
C                     7.728754316958     2.156905646321    -4.729426661144
C                     6.795194270222     3.151554063718    -5.038063099061
C                     7.755633169568     1.597144241877    -3.446465862042
C                    -9.793477801190    -7.176803345889    -0.214549015616
C                    -1.492014325259     0.719024668017    -0.347331230255
C                    -0.212655741267     4.030137810660    -1.446025846384
C                     0.743709324365     2.655067526668     0.299640795760
C                     5.899928746182     3.597347747073    -4.062844195552
C                     6.854888962739     2.032124157182    -2.474521708201
C                    -8.759639493257    -6.275669400044    -0.472382922570
C                    -2.647067986525    -0.054100559135    -0.337019841881
C                     0.938794006232     4.812836864282    -1.470984066184
C                     1.904426896320     3.424640789380     0.287392788131
C                    -2.823950565168     2.690317989210    -0.714141367799
C                   -10.959825300072    -7.088549805996    -0.980686955127
C                   -10.131951737377    -5.326620611524    -2.191541855832
C                    -0.331001292501     2.938515049981    -0.564134879461
C                    -1.558191576193     2.111402211277    -0.543450993329
C                     5.929384226132     3.043389760305    -2.773250721043
C                    -4.002037574714     1.937481850241    -0.699480576679
C                    -8.924426615478    -5.318664268117    -1.478482099793
C                    -3.898924733453     0.548457269039    -0.516878872997
C                     1.988285063842     4.495911526831    -0.604621852134
C                     4.995209402481     3.460644816145    -1.679956649396
C                    -5.359414368866     2.591536823260    -0.850862650592
C                    -6.471989927661     1.655343617183    -0.369045477334
C                    -6.247165655891     0.261644750178    -0.944303518886
C                    -7.310245026460    -0.747416290103    -0.542158472700
C                    -8.004376060756    -3.089420245267    -0.776921782591
C                    -7.861011540178    -4.279437232229    -1.744789313955
N                   -11.134120657247    -6.186423446502    -1.956475046935
N                     4.434935304696     4.726933638511    -1.823862560595
N                    -7.055834303381    -2.044071851451    -1.170919230142
O                     4.722677651418     2.740777327585    -0.728431131610
O                     4.115728567872     5.434881913119     0.663940738871
O                     3.166343280855     6.781691154794    -1.283389617854
O                    -4.991103696423    -0.281651098977    -0.475575205260
O                    -7.955201215392    -3.807947846547    -3.082127400122
S                     3.457576244503     5.501111637265    -0.633305204324
H                     8.427881001085     1.814488228642    -5.487827516534
H                     6.759818038132     3.574899584120    -6.038108314365
H                     8.477116426656     0.820775962773    -3.206715877165
H                    -9.699936902528    -7.936178876908     0.556824809598
H                    -0.526864383461     0.233165300550    -0.236081537949
H                    -1.021052942014     4.253734227256    -2.135853722730
H                     0.660539346514     1.837462695373     1.009373149000
H                     5.158749354560     4.345847008921    -4.330736052039
H                     6.851939265465     1.603114678465    -1.477445076505
H                    -7.832813168318    -6.321659006067     0.097150490501
H                    -2.599844667338    -1.130993576904    -0.202996780767
H                     1.027286601930     5.658664467799    -2.145389877074
H                     2.733302165015     3.206663160532     0.950637230337
H                    -2.905453544846     3.769721249038    -0.823251702478
H                   -11.787247083015    -7.775325927952    -0.806987721372
H                   -10.280423939894    -4.611692351921    -2.996431304895
H                    -5.382395064013     3.533847280850    -0.293865900735
H                    -5.529047166805     2.848118083088    -1.904514432814
H                    -6.471414304566     1.592090033296     0.725140480168
H                    -7.452857009419     2.028398590865    -0.680944647303
H                    -6.197087055228     0.311451861765    -2.041172637683
H                    -8.285441381728    -0.381365828779    -0.881831434487
H                    -7.342996761839    -0.807923703563     0.558969257910
H                    -7.880963791191    -3.427742143550     0.264359085303
H                    -9.018878836673    -2.687814330116    -0.875640341586
H                    -6.871520976011    -4.740301035860    -1.580692757410
H                     4.795520746587     5.386981670444    -2.506381107925
H                    -6.108250769515    -2.332417909993    -0.929407429119
H                    -7.527956860179    -2.928107647694    -3.061961456768
