68
0 1 C30H29N3O5S
C                     5.354213842786     7.675770147108    -6.186306048538
C                     4.671286299681     8.238601049254    -5.103280713581
C                     5.787246200743     6.345835234243    -6.124816535092
C                   -10.734200621313    -5.900314579870    -2.245216628400
C                    -0.950794358926     0.699764750133    -0.078598452971
C                     0.391259077196     4.155639377689     0.199675775720
C                     1.595285618052     2.235350151058    -0.645293661114
C                     4.434266525246     7.479378815581    -3.954937104015
C                     5.541476518172     5.582198334398    -4.983912622639
C                    -9.664225807100    -5.052843965782    -2.538884130015
C                    -2.148194389288    -0.000600695511    -0.168330762704
C                     1.581781343726     4.871933586551     0.290876419919
C                     2.797154592293     2.933740643850    -0.555876783333
C                    -2.086375664116     2.712371666428    -0.750449020572
C                   -10.711483461708    -6.624144981309    -1.049452178960
C                    -8.682425357286    -5.744182341433    -0.466259500850
C                     0.374516831019     2.828755774705    -0.272341114973
C                    -0.896146365966     2.075744060029    -0.370688350319
C                     4.874074595211     6.147933636249    -3.887104565600
C                    -3.302827381131     2.031232932799    -0.853291812119
C                    -8.608225748088    -4.962675513484    -1.627280651187
C                    -3.321225025917     0.657784439372    -0.559207202443
C                     2.773414638976     4.251035307063    -0.092693495444
C                     4.647162301295     5.268675786333    -2.696293696403
C                    -4.574484447002     2.742101371300    -1.264570769175
C                    -5.805765270532     1.925121413622    -0.861908775064
C                    -5.610542288201     0.471294865431    -1.277326289499
C                    -6.786251471701    -0.426041842336    -0.926828309354
C                    -7.622701446491    -2.728656804039    -1.033657297576
C                    -7.444365223342    -4.024720835225    -1.846292122968
N                    -9.704049932398    -6.556640273467    -0.166618514587
N                     4.426444026630     5.935970122275    -1.494583041400
N                    -6.556962240758    -1.791455499500    -1.400512256430
O                     4.638616697897     4.046860551365    -2.765264479123
O                     5.403813294652     4.235484185869     0.220923394335
O                     4.104399661682     6.313275352062     0.929685696955
O                    -4.464137398723    -0.100912183745    -0.606059367318
O                    -7.331903085503    -3.699331604629    -3.225895217236
S                     4.296621785886     5.163687165322     0.041492303537
H                     5.542186562861     8.269184973147    -7.077222556131
H                     4.318186138228     9.264877764104    -5.154983094516
H                     6.313532018884     5.905607881299    -6.967419459690
H                   -11.571591118635    -6.004980841999    -2.929845661449
H                    -0.055735542088     0.179725318619     0.250420848622
H                    -0.532382855085     4.619156248308     0.533207678312
H                     1.602496848196     1.222694976205    -1.037207293478
H                     3.871853905934     7.922532195703    -3.137203312233
H                     5.858837929394     4.546088713209    -4.920959293901
H                    -9.626927312333    -4.477929661871    -3.458695290259
H                    -2.197462242839    -1.059424359450     0.069089196705
H                     1.598250592672     5.885184080474     0.679550482316
H                     3.735139941662     2.483438508246    -0.859066707143
H                    -2.068791745710     3.771300446129    -0.999318416864
H                   -11.532388009252    -7.291590624891    -0.791037325389
H                    -7.868920067133    -5.718627897671     0.260310440425
H                    -4.608985525821     3.737776413653    -0.810472231593
H                    -4.576778456669     2.894788057542    -2.351553312480
H                    -5.954754331014     1.968171927082     0.223116362906
H                    -6.707089836592     2.324175144129    -1.338380628774
H                    -5.423538957275     0.411685074106    -2.358776771909
H                    -7.683413159398    -0.033274911720    -1.418202317201
H                    -6.955900197874    -0.377721088990     0.162211082268
H                    -7.658856389305    -2.955485054030     0.043611319593
H                    -8.583838838588    -2.280596056720    -1.309406282035
H                    -6.521035632618    -4.522943110568    -1.504859403534
H                     4.611181256696     6.930511286035    -1.404049081111
H                    -5.670312092131    -2.114910978982    -1.014601430424
H                    -6.846564714167    -2.849968203035    -3.237658313327
