
  -OEChem-05262117483D

 58 60  0     1  0  0  0  0  0999 V2000
   -4.5649    2.8007    6.4427 C   0  0  0  0  0  0  0  0  0  0  0  0
   -4.5402    1.8998    5.3728 C   0  0  0  0  0  0  0  0  0  0  0  0
   -3.8743    2.4917    7.6195 C   0  0  0  0  0  0  0  0  0  0  0  0
    4.3454   -4.4007    7.1003 C   0  0  0  0  0  0  0  0  0  0  0  0
   -3.8272    0.7020    5.4812 C   0  0  0  0  0  0  0  0  0  0  0  0
   -3.1641    1.2917    7.7218 C   0  0  0  0  0  0  0  0  0  0  0  0
    4.2663   -4.8364    5.7782 C   0  0  0  0  0  0  0  0  0  0  0  0
    3.1882   -4.1592    7.8486 C   0  0  0  0  0  0  0  0  0  0  0  0
    1.8505   -4.8379    5.9126 C   0  0  0  0  0  0  0  0  0  0  0  0
    1.3548   -6.4045    0.8857 C   0  0  0  0  0  0  0  0  0  0  0  0
   -3.1297    0.3808    6.6553 C   0  0  0  0  0  0  0  0  0  0  0  0
    3.0178   -5.0613    5.1625 C   0  0  0  0  0  0  0  0  0  0  0  0
    1.9611   -4.3848    7.2240 C   0  0  0  0  0  0  0  0  0  0  0  0
    0.0225   -6.1800    1.1892 C   0  0  0  0  0  0  0  0  0  0  0  0
   -0.2913   -5.6885    2.4846 C   0  0  0  0  0  0  0  0  0  0  0  0
    1.9594   -5.7234    2.9610 C   0  0  0  0  0  0  0  0  0  0  0  0
   -3.1699   -4.2049    4.2751 C   0  0  0  0  0  0  0  0  0  0  0  0
   -2.3178   -0.8899    6.7501 C   0  0  0  0  0  0  0  0  0  0  0  0
   -0.8684   -0.6869    6.2751 C   0  0  0  0  0  0  0  0  0  0  0  0
   -0.0327   -1.9644    6.3659 C   0  0  0  0  0  0  0  0  0  0  0  0
   -2.1288   -6.3899    5.0545 C   0  0  0  0  0  0  0  0  0  0  0  0
   -1.9305   -5.1009    4.2577 C   0  0  1  0  0  0  0  0  0  0  0  0
    2.3509   -6.1821    1.7567 N   0  0  0  0  0  0  0  0  0  0  0  0
    0.7100   -5.4722    3.3595 N   0  0  0  0  0  0  0  0  0  0  0  0
    3.0077   -5.5096    3.8402 N   0  0  0  0  0  0  0  0  0  0  0  0
   -1.5576   -5.3973    2.8692 N   0  0  0  0  0  0  0  0  0  0  0  0
    0.1165   -2.3833    7.7713 N   0  0  0  0  0  0  0  0  0  0  0  0
   -0.6422   -4.7617    7.4480 O   0  0  0  0  0  0  0  0  0  0  0  0
    0.6877   -4.0726    9.5332 O   0  0  0  0  0  0  0  0  0  0  0  0
   -3.1812   -7.1303    4.4181 O   0  0  0  0  0  0  0  0  0  0  0  0
    0.4335   -4.0036    8.0940 S   0  0  0  0  0  0  0  0  0  0  0  0
   -1.3499   -6.5244   -0.0999 Br  0  0  0  0  0  0  0  0  0  0  0  0
   -5.1212    3.7311    6.3624 H   0  0  0  0  0  0  0  0  0  0  0  0
   -5.0795    2.1281    4.4567 H   0  0  0  0  0  0  0  0  0  0  0  0
   -3.8939    3.1824    8.4589 H   0  0  0  0  0  0  0  0  0  0  0  0
    5.3216   -4.2490    7.5524 H   0  0  0  0  0  0  0  0  0  0  0  0
   -3.8171    0.0033    4.6464 H   0  0  0  0  0  0  0  0  0  0  0  0
   -2.6360    1.0542    8.6434 H   0  0  0  0  0  0  0  0  0  0  0  0
    5.1805   -5.0111    5.2149 H   0  0  0  0  0  0  0  0  0  0  0  0
    3.2335   -3.8341    8.8828 H   0  0  0  0  0  0  0  0  0  0  0  0
    0.8857   -5.0298    5.4743 H   0  0  0  0  0  0  0  0  0  0  0  0
    1.6380   -6.7795   -0.0956 H   0  0  0  0  0  0  0  0  0  0  0  0
   -4.0286   -4.7103    3.8237 H   0  0  0  0  0  0  0  0  0  0  0  0
   -2.9796   -3.2767    3.7278 H   0  0  0  0  0  0  0  0  0  0  0  0
   -3.4311   -3.9570    5.3079 H   0  0  0  0  0  0  0  0  0  0  0  0
   -2.7803   -1.6741    6.1400 H   0  0  0  0  0  0  0  0  0  0  0  0
   -2.3034   -1.2602    7.7793 H   0  0  0  0  0  0  0  0  0  0  0  0
   -0.3962    0.1131    6.8595 H   0  0  0  0  0  0  0  0  0  0  0  0
   -0.8639   -0.3479    5.2323 H   0  0  0  0  0  0  0  0  0  0  0  0
    0.9446   -1.8296    5.8837 H   0  0  0  0  0  0  0  0  0  0  0  0
   -0.5503   -2.7717    5.8440 H   0  0  0  0  0  0  0  0  0  0  0  0
   -1.1918   -6.9616    5.0546 H   0  0  0  0  0  0  0  0  0  0  0  0
   -2.3800   -6.1377    6.0910 H   0  0  0  0  0  0  0  0  0  0  0  0
   -1.0943   -4.5700    4.7093 H   0  0  0  0  0  0  0  0  0  0  0  0
    3.9054   -5.7136    3.4177 H   0  0  0  0  0  0  0  0  0  0  0  0
   -2.2959   -5.7730    2.2847 H   0  0  0  0  0  0  0  0  0  0  0  0
    0.7441   -1.7957    8.3184 H   0  0  0  0  0  0  0  0  0  0  0  0
   -3.3071   -7.9595    4.9023 H   0  0  0  0  0  0  0  0  0  0  0  0
  1  2  1  0  0  0  0
  1  3  2  0  0  0  0
  1 33  1  0  0  0  0
  2  5  2  0  0  0  0
  2 34  1  0  0  0  0
  3  6  1  0  0  0  0
  3 35  1  0  0  0  0
  4  7  1  0  0  0  0
  4  8  2  0  0  0  0
  4 36  1  0  0  0  0
  5 11  1  0  0  0  0
  5 37  1  0  0  0  0
  6 11  2  0  0  0  0
  6 38  1  0  0  0  0
  7 12  2  0  0  0  0
  7 39  1  0  0  0  0
  8 13  1  0  0  0  0
  8 40  1  0  0  0  0
  9 12  1  0  0  0  0
  9 13  2  0  0  0  0
  9 41  1  0  0  0  0
 10 14  1  0  0  0  0
 10 23  2  0  0  0  0
 10 42  1  0  0  0  0
 11 18  1  0  0  0  0
 12 25  1  0  0  0  0
 13 31  1  0  0  0  0
 14 15  2  0  0  0  0
 14 32  1  0  0  0  0
 15 24  1  0  0  0  0
 15 26  1  0  0  0  0
 16 23  1  0  0  0  0
 16 24  2  0  0  0  0
 16 25  1  0  0  0  0
 17 22  1  0  0  0  0
 17 43  1  0  0  0  0
 17 44  1  0  0  0  0
 17 45  1  0  0  0  0
 18 19  1  0  0  0  0
 18 46  1  0  0  0  0
 18 47  1  0  0  0  0
 19 20  1  0  0  0  0
 19 48  1  0  0  0  0
 19 49  1  0  0  0  0
 20 27  1  0  0  0  0
 20 50  1  0  0  0  0
 20 51  1  0  0  0  0
 21 22  1  0  0  0  0
 21 30  1  0  0  0  0
 21 52  1  0  0  0  0
 21 53  1  0  0  0  0
 22 26  1  0  0  0  0
 22 54  1  0  0  0  0
 25 55  1  0  0  0  0
 26 56  1  0  0  0  0
 27 31  1  0  0  0  0
 27 57  1  0  0  0  0
 28 31  2  0  0  0  0
 29 31  2  0  0  0  0
 30 58  1  0  0  0  0
M  END
$$$$
