25
0 1 C9H11N3O2
C                     1.842743730474     0.703299272892    -0.682417373940
C                     0.852755088841     1.686259806155    -0.763058339817
C                     2.241265976557     0.001958558941    -1.839181780459
C                     0.322620506637     1.894645039705    -2.033218093479
C                     0.790346161742     1.138454970282    -3.148581479530
C                    -0.704926170017     2.472234228581    -3.907540405206
C                    -1.696365974315     3.194512622054    -4.767061421568
C                    -3.610923798996     6.126031965185    -3.608387325623
C                    -3.277311905978     4.967502948463    -4.523719000778
N                     1.738613694196     0.198828965181    -3.063686680311
N                     0.123990660257     1.533386098103    -4.303861824437
N                    -0.643619593133     2.735009872792    -2.556255679023
O                    -3.897551190502     5.604033329134    -2.307745451179
O                    -2.048474187794     4.395986083956    -4.095335760956
H                     2.311827857564     0.470709881192     0.269014744069
H                     0.524506830195     2.242738957198     0.111129325658
H                     3.013530216512    -0.761600382516    -1.759169418899
H                    -1.258519638354     3.388865393629    -5.754636978078
H                    -2.583399649416     2.558447668616    -4.909407180764
H                    -4.480106490536     6.656913227017    -4.023403490894
H                    -2.759219624345     6.819753580365    -3.578483680201
H                    -3.196010463440     5.330555573263    -5.559620639448
H                    -4.081744913238     4.218590314546    -4.478912571497
H                    -1.180918769094     3.464295535637    -2.101889981035
H                    -4.089187938875     6.347808753024    -1.716624984064
