
  -OEChem-05262117483D

 31 32  0     1  0  0  0  0  0999 V2000
   -4.5344   -6.0280    3.4519 C   0  0  0  0  0  0  0  0  0  0  0  0
   -3.3622   -4.4810    1.9375 C   0  0  0  0  0  0  0  0  0  0  0  0
   -2.2188   -3.7495    1.6325 C   0  0  0  0  0  0  0  0  0  0  0  0
   -0.8876    0.2025    0.9344 C   0  0  0  0  0  0  0  0  0  0  0  0
   -1.2231   -4.6237    3.6251 C   0  0  0  0  0  0  0  0  0  0  0  0
   -0.8681   -0.7339    1.9455 C   0  0  0  0  0  0  0  0  0  0  0  0
    0.2171   -1.4693    0.1655 C   0  0  0  0  0  0  0  0  0  0  0  0
   -3.3591   -5.2588    3.1045 C   0  0  0  0  0  0  0  0  0  0  0  0
   -1.1089   -3.8115    2.4857 C   0  0  0  0  0  0  0  0  0  0  0  0
    3.2888   -1.7710    4.1535 C   0  0  0  0  0  0  0  0  0  0  0  0
    2.3527   -1.9809    2.9588 C   0  0  0  0  0  0  0  0  0  0  0  0
    1.0997   -2.7768    3.3398 C   0  0  0  0  0  0  0  0  0  0  0  0
    0.1692   -3.0484    2.1447 C   0  0  2  0  0  0  0  0  0  0  0  0
   -5.4991   -6.6328    3.6946 N   0  0  0  0  0  0  0  0  0  0  0  0
   -0.2079   -0.2661   -0.1719 N   0  0  0  0  0  0  0  0  0  0  0  0
   -2.3120   -5.3329    3.9402 N   0  0  0  0  0  0  0  0  0  0  0  0
   -0.1564   -1.8089    1.4406 N   0  0  0  0  0  0  0  0  0  0  0  0
   -4.2399   -4.4543    1.2996 H   0  0  0  0  0  0  0  0  0  0  0  0
   -2.1928   -3.1250    0.7445 H   0  0  0  0  0  0  0  0  0  0  0  0
   -1.3517    1.1804    0.9416 H   0  0  0  0  0  0  0  0  0  0  0  0
   -0.4017   -4.7112    4.3305 H   0  0  0  0  0  0  0  0  0  0  0  0
   -1.2918   -0.7416    2.9395 H   0  0  0  0  0  0  0  0  0  0  0  0
    0.7986   -2.1379   -0.4577 H   0  0  0  0  0  0  0  0  0  0  0  0
    2.7856   -1.2213    4.9569 H   0  0  0  0  0  0  0  0  0  0  0  0
    3.6302   -2.7267    4.5673 H   0  0  0  0  0  0  0  0  0  0  0  0
    4.1744   -1.1975    3.8627 H   0  0  0  0  0  0  0  0  0  0  0  0
    2.8884   -2.5099    2.1596 H   0  0  0  0  0  0  0  0  0  0  0  0
    2.0601   -1.0107    2.5446 H   0  0  0  0  0  0  0  0  0  0  0  0
    0.5438   -2.2480    4.1235 H   0  0  0  0  0  0  0  0  0  0  0  0
    1.4069   -3.7376    3.7666 H   0  0  0  0  0  0  0  0  0  0  0  0
    0.7281   -3.6530    1.4200 H   0  0  0  0  0  0  0  0  0  0  0  0
  1  8  1  0  0  0  0
  1 14  3  0  0  0  0
  2  3  1  0  0  0  0
  2  8  2  0  0  0  0
  2 18  1  0  0  0  0
  3  9  2  0  0  0  0
  3 19  1  0  0  0  0
  4  6  2  0  0  0  0
  4 15  1  0  0  0  0
  4 20  1  0  0  0  0
  5  9  1  0  0  0  0
  5 16  2  0  0  0  0
  5 21  1  0  0  0  0
  6 17  1  0  0  0  0
  6 22  1  0  0  0  0
  7 15  2  0  0  0  0
  7 17  1  0  0  0  0
  7 23  1  0  0  0  0
  8 16  1  0  0  0  0
  9 13  1  0  0  0  0
 10 11  1  0  0  0  0
 10 24  1  0  0  0  0
 10 25  1  0  0  0  0
 10 26  1  0  0  0  0
 11 12  1  0  0  0  0
 11 27  1  0  0  0  0
 11 28  1  0  0  0  0
 12 13  1  0  0  0  0
 12 29  1  0  0  0  0
 12 30  1  0  0  0  0
 13 17  1  0  0  0  0
 13 31  1  0  0  0  0
M  END
$$$$
