24   
torsion grid (-165,)
C        3.9283101887    2.8061095570    3.1387047218
C        4.7636700132    1.9092783616    2.4627559566
C        4.3999486663    4.0819405595    3.4616971789
C        6.0636364406    2.2804450631    2.1130633166
C        5.6995663836    4.4552387033    3.1065940661
C        6.5441230714    3.5609445989    2.4323527011
C        9.0580179576    3.0772500915    2.5842185864
C        6.7793374195    5.1373205627   -0.3309625673
C        7.9417702062    3.9916687583    2.0646648402
O        9.4135308503    4.8473125518   -0.0220933105
O        7.9728184741    2.7626780647   -0.3414690536
S        8.1611194733    4.1107819762    0.2284475377
H        2.9178887399    2.5124516053    3.4107650384
H        4.4003579641    0.9182118016    2.2039049020
H        3.7596103372    4.7848605470    3.9881145653
H        6.6959381223    1.5892635936    1.5655359331
H        6.0616672386    5.4498016439    3.3589046357
H        8.9530862088    2.0642585116    2.1906195277
H       10.0397811025    3.4631649811    2.2991839375
H        8.9968218451    3.0343118127    3.6751571659
H        5.8583334152    4.7777103441    0.1283056852
H        6.9795806811    6.1780562416   -0.0743022568
H        6.7310130302    4.9966040647   -1.4122798323
H        8.1185790709    5.0163965731    2.4054651533
24   
torsion grid (-150,)
C        3.9327106905    2.7887825481    3.1403394310
C        4.7748383118    1.9152891433    2.4426444987
C        4.3941069354    4.0605112551    3.4927736023
C        6.0711650044    2.3051288416    2.0999799593
C        5.6898954438    4.4535916088    3.1449151321
C        6.5405522832    3.5821977517    2.4482894781
C        9.0568123759    3.1285355790    2.6222625356
C        6.8087830506    5.2087130125   -0.3125195185
C        7.9356136173    4.0322009285    2.0943333170
O        9.4409755038    4.8879262237    0.0314711115
O        7.9842164575    2.8191419288   -0.3163167506
S        8.1773214773    4.1635655188    0.2609201956
H        2.9251375734    2.4802781514    3.4064961927
H        4.4195682880    0.9274886137    2.1611413480
H        3.7486883844    4.7452791566    4.0366057334
H        6.7091551013    1.6323917139    1.5364168064
H        6.0442683191    5.4446153112    3.4212717642
H        8.9668579596    2.1158742555    2.2238274743
H       10.0372080781    3.5264231377    2.3495017863
H        8.9838273975    3.0801883729    3.7122506386
H        5.9360057790    5.0306725817    0.3169833060
H        7.1241769094    6.2514162620   -0.2785545751
H        6.5904337440    4.8818719094   -1.3302802193
H        8.0963366121    5.0574172944    2.4421283393
24   
torsion grid (-135,)
C        3.9231267977    2.7676862404    3.1451804426
C        4.7321449113    1.8847213660    2.4206628495
C        4.4144730122    4.0294900342    3.4923874891
C        6.0255783183    2.2540304401    2.0457384713
C        5.7074003703    4.4018813083    3.1122493063
C        6.5252229554    3.5210507527    2.3885991462
C        9.0346354703    3.0413620306    2.5506629730
C        6.7710081928    5.0650772811   -0.4204764485
C        7.9214675471    3.9479291433    2.0100011887
O        9.4092417750    4.7631038111   -0.0768245134
O        7.9658926159    2.6758697039   -0.3694049952
S        8.1509544067    4.0362458753    0.1733418725
H        2.9179960255    2.4740581676    3.4362474827
H        4.3531161567    0.9044084131    2.1439432287
H        3.7954210309    4.7218001980    4.0569536827
H        6.6385872149    1.5736394591    1.4637559513
H        6.0858096229    5.3849177547    3.3853070114
H        8.9251005554    2.0208522415    2.1782026728
H       10.0186358216    3.4176947726    2.2604948113
H        8.9700894869    3.0215946203    3.6421051294
H        6.0051095002    5.1243630908    0.3539931644
H        7.1659833149    6.0508185524   -0.6653511077
H        6.3633712786    4.5601493392   -1.2966733279
H        8.0975472683    4.9785945827    2.3330377066
24   
torsion grid (-120,)
C        3.9223796970    2.7622500570    3.1234508791
C        4.7273661635    1.8753851499    2.3992869522
C        4.4208748416    4.0207345989    3.4725971870
C        6.0232078514    2.2387906579    2.0267825886
C        5.7162302475    4.3870095934    3.0949864893
C        6.5300523621    3.5024130380    2.3716451092
C        9.0387685817    3.0126048181    2.5255384838
C        6.7482030461    5.0232807570   -0.4354920786
C        7.9273855302    3.9230401691    1.9892827474
O        9.3900200787    4.7612739550   -0.0972453675
O        7.9867947657    2.6482404939   -0.3959215931
S        8.1454724168    4.0094732164    0.1514211903
H        2.9151369431    2.4742275415    3.4128153063
H        4.3434852148    0.8974067191    2.1209603949
H        3.8049453084    4.7157513611    4.0372366362
H        6.6333110540    1.5550852356    1.4454208135
H        6.1002919466    5.3669839873    3.3715560380
H        8.9255211837    1.9927382916    2.1522329202
H       10.0229089175    3.3864018842    2.2325753339
H        8.9779615912    2.9912765177    3.6172241126
H        6.1315461330    5.3257897063    0.4115047416
H        7.1752213856    5.8914680594   -0.9377644496
H        6.1671938007    4.4100092056   -1.1238865928
H        8.1090033789    4.9537468619    2.3083760953
24   
torsion grid (-105,)
C        1.7075802501   -1.1950415926   -0.0987524821
C        2.8556410580   -0.7666061226    0.5775642748
C        0.5702939649   -1.5570695907    0.6290832509
C        2.8715221008   -0.7016074576    1.9724092992
C        0.5846407811   -1.4865303656    2.0252740036
C        1.7322351175   -1.0616203939    2.7107234922
C        2.7919812116   -1.8567609111    4.9034836271
C        0.7359102296    1.7082000957    3.8737533145
C        1.7194045844   -1.0021493270    4.2182539224
O        1.4975310406    0.7379294476    6.2418607996
O        3.2930048018    1.1898651119    4.4824892275
S        1.9353828518    0.7309603483    4.8329885718
H        1.7001377499   -1.2460163523   -1.1843646965
H        3.7411446630   -0.4794245596    0.0165842285
H       -0.3252083198   -1.8936607075    0.1133002340
H        3.7575151110   -0.3468246794    2.4892977914
H       -0.3024101738   -1.7720271405    2.5874122451
H        3.7944674467   -1.5419603482    4.6065058242
H        2.7098966990   -1.7851437405    5.9908780997
H        2.6528886810   -2.8997463759    4.6054979770
H        0.0001493456    1.0476014240    3.4143797843
H        0.2557215919    2.3758427665    4.5906368104
H        1.2803622882    2.2762558312    3.1203357194
H        0.7303701870   -1.2760033571    4.5969835736
24   
torsion grid (-90,)
C        1.7214600814   -1.1663266288   -0.0881083807
C        2.8737746284   -0.7603360262    0.5948885602
C        0.5789360107   -1.5194503079    0.6358833313
C        2.8885983798   -0.7088937218    1.9902897774
C        0.5908788005   -1.4631569889    2.0327227226
C        1.7432713599   -1.0608839621    2.7232750647
C        2.8059578377   -1.8567819031    4.9172701580
C        0.7270110132    1.6773351202    3.8710531732
C        1.7277253492   -1.0105276013    4.2312289482
O        1.4696136508    0.7339018151    6.2484232914
O        3.2796140336    1.1985614809    4.5075717933
S        1.9244762458    0.7238188574    4.8452079500
H        1.7148725862   -1.2067610778   -1.1742000267
H        3.7640419792   -0.4797681662    0.0381619426
H       -0.3203279540   -1.8386357719    0.1156662114
H        3.7783464537   -0.3701259065    2.5114180665
H       -0.3011850658   -1.7412164364    2.5906021949
H        3.8064891858   -1.5324130128    4.6241559626
H        2.7204811990   -1.7878593360    6.0046276460
H        2.6770531020   -2.9004606675    4.6172211692
H       -0.1422434071    1.0581194565    3.6456412567
H        0.4381476753    2.5144760505    4.5090967272
H        1.2127821646    2.0355904566    2.9643365206
H        0.7400465690   -1.2949198898    4.6057697338
24   
torsion grid (-75,)
C        1.7183542990   -1.1612079375   -0.1109359704
C        2.8823091716   -0.7772231078    0.5651633927
C        0.5734645037   -1.4982704860    0.6170308458
C        2.9056586644   -0.7320101784    1.9606105322
C        0.5966208833   -1.4477416667    2.0139238970
C        1.7594598055   -1.0680361628    2.6996366461
C        2.8458763258   -1.8466919967    4.8903790972
C        0.7130333507    1.6514770747    3.8521296911
C        1.7527263160   -1.0173214949    4.2073211615
O        1.4933749779    0.7342578746    6.2251644336
O        3.2722933348    1.2148606572    4.4566017735
S        1.9296124358    0.7214849250    4.8163219563
H        1.7045441625   -1.1969273935   -1.1970852350
H        3.7735229621   -0.5090969457    0.0038197381
H       -0.3343178059   -1.7996931889    0.1009584130
H        3.8037095483   -0.4086767620    2.4771485100
H       -0.2967995164   -1.7112418702    2.5764401048
H        3.8408370955   -1.5082874409    4.5943271069
H        2.7628537381   -1.7771551341    5.9778522806
H        2.7313508237   -2.8926726783    4.5925732965
H       -0.2408669223    1.1221308555    3.8655899871
H        0.6177974887    2.6127116465    4.3610047453
H        1.0851710948    1.7876505894    2.8373959494
H        0.7712348756   -1.3146573897    4.5879765315
24   
torsion grid (-60,)
C        1.7393587845   -1.1741854276   -0.1266197582
C        2.8989140206   -0.7849401872    0.5538321005
C        0.5918262451   -1.5100788406    0.5978581042
C        2.9128994522   -0.7345981252    1.9492758256
C        0.6051825335   -1.4543581268    1.9947568048
C        1.7639174042   -1.0691979922    2.6846528155
C        2.8372305215   -1.8532962777    4.8791143482
C        0.6893964257    1.6501117250    3.8876492914
C        1.7502465924   -1.0179864377    4.1921906803
O        1.5421380581    0.7229922713    6.2332377006
O        3.2624452929    1.2159856558    4.4114122495
S        1.9327997544    0.7172639360    4.8115405736
H        1.7309254681   -1.2145447814   -1.2126724324
H        3.7928526894   -0.5170423981   -0.0032996127
H       -0.3124919811   -1.8152041757    0.0779324214
H        3.8069488694   -0.4067743988    2.4696435148
H       -0.2913929654   -1.7159986466    2.5530267495
H        3.8350148026   -1.5196858910    4.5868488622
H        2.7502351126   -1.7843066317    5.9661993293
H        2.7187483043   -2.8982525081    4.5793933026
H       -0.2987545396    1.2552993737    4.1298045485
H        0.7816537893    2.6819942746    4.2309037552
H        0.8970661014    1.5719334356    2.8207584170
H        0.7659724482   -1.3147693596    4.5665473497
24   
torsion grid (-45,)
C        1.7540058671   -1.1800069679   -0.1350153049
C        2.9064725397   -0.7851771151    0.5541834581
C        0.6025130710   -1.5241491982    0.5792493606
C        2.9125075200   -0.7364845837    1.9497294379
C        0.6079886273   -1.4697530837    1.9761923178
C        1.7596219506   -1.0786991005    2.6751714975
C        2.8227199513   -1.8640945240    4.8726214275
C        0.6561616026    1.6457936377    3.9114361813
C        1.7350525196   -1.0319623584    4.1822257816
O        1.5315544947    0.6904479525    6.2433876928
O        3.2316869629    1.2052942869    4.4084036325
S        1.9066467887    0.7006579334    4.8174868419
H        1.7539631747   -1.2185281565   -1.2211465079
H        3.8022845692   -0.5110083587    0.0031921646
H       -0.2964368100   -1.8337593407    0.0526515584
H        3.8008440021   -0.4037666130    2.4765081716
H       -0.2906195223   -1.7370994907    2.5284173000
H        3.8201502374   -1.5232089418    4.5880511038
H        2.7284271949   -1.8006371696    5.9594216450
H        2.7118415078   -2.9082665923    4.5674131626
H       -0.3224934968    1.4255555405    4.3405987049
H        0.9138863669    2.6960387778    4.0566699439
H        0.6908120106    1.3750851099    2.8563417641
H        0.7507278561   -1.3378949417    4.5496255455
24   
torsion grid (-30,)
C        1.7763959507   -1.1770069576   -0.1462403296
C        2.9211947947   -0.7621271143    0.5438646593
C        0.6296388049   -1.5352669381    0.5685731843
C        2.9249317907   -0.7070386960    1.9391518454
C        0.6312663731   -1.4746634227    1.9653421813
C        1.7758717890   -1.0626721138    2.6641865407
C        2.8287420460   -1.8596153478    4.8603218602
C        0.6662885193    1.6723752131    3.9386606168
C        1.7488473654   -1.0159620381    4.1712528916
O        1.5874721815    0.6898876427    6.2485771704
O        3.2535386785    1.2149144991    4.3857278659
S        1.9338984180    0.7126439760    4.8155704768
H        1.7786700969   -1.2201626934   -1.2322170349
H        3.8138043694   -0.4770873771   -0.0067918776
H       -0.2636472251   -1.8610732738    0.0421478710
H        3.8074178616   -0.3596430838    2.4661625617
H       -0.2639078550   -1.7545197121    2.5171018569
H        3.8290887338   -1.5271140089    4.5757617629
H        2.7350057741   -1.7979910777    5.9472087733
H        2.7086608426   -2.9019034945    4.5521402114
H       -0.2451483781    1.6545242224    4.5373387010
H        1.0579417057    2.6862557150    3.8492839103
H        0.4936314755    1.2335684554    2.9556212492
H        0.7614042455   -1.3151024491    4.5362550404
24   
torsion grid (-15,)
C        1.7877356650   -1.1805851809   -0.1444743979
C        2.9181108394   -0.7423099820    0.5549057753
C        0.6434936548   -1.5647784622    0.5606999816
C        2.9098834532   -0.6892356052    1.9502567440
C        0.6335412100   -1.5062614275    1.9575709297
C        1.7633288595   -1.0706420449    2.6661632175
C        2.7962666623   -1.8844186540    4.8637185173
C        0.6484197193    1.6646337447    3.9460300793
C        1.7242479713   -1.0318966420    4.1734628894
O        1.5402092789    0.6536234566    6.2594108452
O        3.2351048441    1.1929136797    4.4267910891
S        1.9073461017    0.6912284190    4.8316415330
H        1.7993096249   -1.2219438841   -1.2304614715
H        3.8087452181   -0.4377290817    0.0115144607
H       -0.2384846517   -1.9091359611    0.0270533251
H        3.7811378147   -0.3255987353    2.4850300248
H       -0.2591429400   -1.8078422848    2.5019795789
H        3.7994773853   -1.5541179389    4.5864983320
H        2.6964153952   -1.8298190088    5.9504416075
H        2.6739173899   -2.9241264885    4.5476548166
H       -0.1637750213    1.8646188789    4.6452569749
H        1.1324046401    2.5867534139    3.6240250672
H        0.2893265844    1.1003457626    3.0847308858
H        0.7328991803   -1.3293660971    4.5290076626
24   
torsion grid (0,)
C        1.7850915338   -1.1552226073   -0.1333818438
C        2.9000570821   -0.7095931790    0.5857980334
C        0.6406761431   -1.5717157897    0.5529232817
C        2.8761883914   -0.6812238183    1.9817192667
C        0.6146560988   -1.5381505185    1.9503737088
C        1.7291892558   -1.0955903584    2.6783790136
C        2.7504508669   -1.9289502217    4.8741288282
C        0.5864436075    1.6098173494    3.9519772670
C        1.6736989495   -1.0814428918    4.1857452704
O        1.4047565322    0.5736505529    6.2798003158
O        3.1638607896    1.1515021659    4.5206365981
S        1.8257788223    0.6348820260    4.8673362062
H        1.8087518832   -1.1773822327   -1.2197377070
H        3.7908814039   -0.3800899979    0.0574620312
H       -0.2293391392   -1.9221644214    0.0038404599
H        3.7356478823   -0.3125463386    2.5321926177
H       -0.2778287430   -1.8660917789    2.4797950706
H        3.7516813363   -1.5801287807    4.6129687089
H        2.6383024248   -1.8924863768    5.9604665010
H        2.6464843676   -2.9654583536    4.5412791538
H       -0.1041377751    2.0199303356    4.6889339657
H        1.1198530557    2.3976572528    3.4205501533
H        0.0657431457    0.9672517442    3.2411499654
H        0.6828969053   -1.3959196259    4.5272336910
24   
torsion grid (15,)
C        1.7814298233   -1.1235329242   -0.1349633047
C        2.8860271390   -0.6758116345    0.5988184561
C        0.6383974632   -1.5671384458    0.5365240407
C        2.8531251695   -0.6724160603    1.9948708082
C        0.6036658226   -1.5583758919    1.9341296987
C        1.7075839009   -1.1143238744    2.6768983668
C        2.7283190842   -1.9626388242    4.8678469472
C        0.5498319865    1.5546667371    3.9303709624
C        1.6425332670   -1.1234522250    4.1843352462
O        1.2843240408    0.5109306773    6.2766641866
O        3.1085880660    1.1184041033    4.5954801827
S        1.7626182709    0.5871264015    4.8830750527
H        1.8120591300   -1.1263719462   -1.2213596252
H        3.7756360340   -0.3254908513    0.0819432896
H       -0.2234936393   -1.9193373475   -0.0241451940
H        3.7046912141   -0.3026964171    2.5571720978
H       -0.2875528886   -1.9072680543    2.4521710753
H        3.7253859251   -1.5930928727    4.6196603925
H        2.6077315735   -1.9439087520    5.9538278871
H        2.6442534369   -2.9959064204    4.5196205777
H        0.0041755954    2.1639599259    4.6512154520
H        1.0962621398    2.1703842359    3.2163342240
H       -0.1189475271    0.8785345668    3.3964808912
H        0.6545195996   -1.4556687467    4.5160045189
24   
torsion grid (30,)
C        1.7912498376   -1.0948813999   -0.1216499494
C        2.9016309360   -0.6688938947    0.6164605729
C        0.6426979269   -1.5307695350    0.5454683820
C        2.8694606031   -0.6793407737    2.0124516139
C        0.6081467639   -1.5361910574    1.9430304295
C        1.7181091292   -1.1143084117    2.6892992678
C        2.7433561634   -1.9620950906    4.8809818258
C        0.5471527658    1.5259729470    3.9223785077
C        1.6515900316   -1.1318941562    4.1965804481
O        1.2550974875    0.5054027335    6.2805268300
O        3.0970660141    1.1236827057    4.6230330222
S        1.7532417000    0.5793893493    4.8938406287
H        1.8216913574   -1.0868206368   -1.2080300358
H        3.7953699486   -0.3244736125    0.1027908371
H       -0.2236892756   -1.8660042705   -0.0186445127
H        3.7255224520   -0.3251705974    2.5779924196
H       -0.2874530645   -1.8784709003    2.4578894922
H        3.7377122117   -1.5830524427    4.6363996533
H        2.6201249291   -1.9459400698    5.9667492653
H        2.6697562650   -2.9956828196    4.5313903696
H        0.1757063037    2.3115002165    4.5816569298
H        1.0531703184    1.9413396482    3.0512312145
H       -0.2598176238    0.8647665027    3.6035029308
H        0.6658658622   -1.4736896205    4.5251497655
24   
torsion grid (45,)
C        1.7930699397   -1.0709444259   -0.1306671298
C        2.9052884319   -0.6579853048    0.6121952733
C        0.6413517354   -1.5068246433    0.5310358553
C        2.8712718391   -0.6815994028    2.0079698990
C        0.6058068157   -1.5252312012    1.9284746277
C        1.7171404094   -1.1168880732    2.6798619062
C        2.7523512606   -1.9546233306    4.8723653104
C        0.5129255801    1.4963444312    3.9049751619
C        1.6480223083   -1.1423872091    4.1866215110
O        1.2073665455    0.4914820482    6.2698480575
O        3.0545316228    1.1339276664    4.6270025180
S        1.7173169620    0.5690445188    4.8879047591
H        1.8245340141   -1.0526432356   -1.2168840662
H        3.8012967525   -0.3134164832    0.1026004360
H       -0.2264358012   -1.8316158226   -0.0370279471
H        3.7283844583   -0.3362755970    2.5773091945
H       -0.2926826937   -1.8654639926    2.4394122138
H        3.7404925851   -1.5559462926    4.6343593037
H        2.6243087500   -1.9450713552    5.9577036129
H        2.6994612371   -2.9880921550    4.5187959804
H        0.3185833995    2.4136753672    4.4631229413
H        0.9426382489    1.7124550256    2.9272687007
H       -0.3982032490    0.9046141802    3.8032063568
H        0.6678496893   -1.5031094754    4.5116661831
24   
torsion grid (60,)
C        1.8147482610   -1.0644541977   -0.1446467399
C        2.9270454807   -0.6576418364    0.6013881216
C        0.6587317753   -1.4924962838    0.5147866058
C        2.8888026890   -0.6800064534    1.9970995088
C        0.6188084611   -1.5099060014    1.9121144440
C        1.7305069029   -1.1076497007    2.6665534255
C        2.7639396676   -1.9369282917    4.8640256951
C        0.4750920700    1.4921049166    3.9272633061
C        1.6566791346   -1.1328503483    4.1727735719
O        1.2428808325    0.4951721665    6.2730812588
O        3.0335725811    1.1628787570    4.5786480741
S        1.7124492115    0.5784880736    4.8776968646
H        1.8493294513   -1.0472752446   -1.2307976661
H        3.8265184133   -0.3185062649    0.0942866780
H       -0.2095817619   -1.8120510906   -0.0554290739
H        3.7458464624   -0.3380361905    2.5682638445
H       -0.2837444932   -1.8426587263    2.4206596119
H        3.7504091268   -1.5312175231    4.6308855412
H        2.6301933104   -1.9279266157    5.9485798833
H        2.7204373800   -2.9707082129    4.5101791186
H        0.4716685965    2.4985397628    4.3504582700
H        0.7668465953    1.5142861024    2.8778416374
H       -0.4993069107    1.0209711684    4.0655724606
H        0.6780869220   -1.5022692994    4.4933813856
24   
torsion grid (75,)
C        1.8364830767   -1.0728052968   -0.1645588228
C        2.9580690484   -0.6633214729    0.5658025085
C        0.6849452403   -1.4879011964    0.5108437395
C        2.9340446096   -0.6702580707    1.9620061164
C        0.6591903980   -1.4896115669    1.9086267973
C        1.7804135261   -1.0843449094    2.6476701497
C        2.8285573312   -1.9128734853    4.8370463167
C        0.5398707886    1.5402894600    3.9587300107
C        1.7227084968   -1.0984962459    4.1545950161
O        1.4021107795    0.5349793900    6.2720979475
O        3.1194370395    1.1887764032    4.4983921612
S        1.8086646024    0.6137290221    4.8570125219
H        1.8603166111   -1.0676692886   -1.2511202702
H        3.8539642125   -0.3339936645    0.0460719496
H       -0.1905880612   -1.8094364596   -0.0471004440
H        3.7980820436   -0.3258768899    2.5207586419
H       -0.2398614910   -1.8121107873    2.4297913160
H        3.8170665256   -1.5220276882    4.5877649154
H        2.7093549179   -1.8950336433    5.9231262090
H        2.7664615711   -2.9481404505    4.4904817740
H        0.7352849625    2.5892346168    4.1906493352
H        0.6422309533    1.3624335837    2.8886927237
H       -0.4418798234    1.2514344066    4.3362857680
H        0.7439877553   -1.4573055402    4.4874089352
24   
torsion grid (90,)
C        1.8526532598   -1.0771758291   -0.1683351569
C        2.9562362887   -0.6494366973    0.5786967777
C        0.7005377608   -1.5162953705    0.4906296888
C        2.9138230230   -0.6618095365    1.9744188208
C        0.6558779868   -1.5233007803    1.8879800184
C        1.7591771193   -1.0992325807    2.6436463650
C        2.7826501405   -1.9437137147    4.8366703189
C        0.4807158490    1.5187094299    3.9908616876
C        1.6827629509   -1.1247616538    4.1495081743
O        1.3596404265    0.4793030996    6.2902799247
O        3.0665897926    1.1620318119    4.5174752406
S        1.7580707476    0.5798494828    4.8742328896
H        1.8908385132   -1.0676907152   -1.2544656326
H        3.8527224722   -0.3015401482    0.0722494048
H       -0.1611975896   -1.8526422289   -0.0799086355
H        3.7637200197   -0.3038347721    2.5460352373
H       -0.2435822802   -1.8655972702    2.3957346136
H        3.7729278171   -1.5483885320    4.6018098634
H        2.6513099296   -1.9370408369    5.9214321777
H        2.7265985719   -2.9755012393    4.4788693853
H        0.8221409351    2.5553090887    4.0050201493
H        0.4038690416    1.1639310844    2.9632131784
H       -0.4582196973    1.4247049058    4.5370736958
H        0.7011730810   -1.4894725257    4.4674870437
24   
torsion grid (105,)
C        3.9326447870    2.8916306310    3.2912018452
C        4.7361827942    1.9838794363    2.5916549296
C        4.4252337218    4.1642952023    3.5942709583
C        6.0271736825    2.3411627016    2.1973406335
C        5.7159565485    4.5229249389    3.1940959844
C        6.5293952586    3.6186369737    2.4947842541
C        9.0413242615    3.1416484372    2.6405253262
C        6.7503669136    5.1004930507   -0.3547227283
C        7.9217442455    4.0336589151    2.0896026293
O        9.3898461539    4.7839919256   -0.0362195511
O        7.9266394481    2.7032363231   -0.2588840069
S        8.1286343876    4.0746509112    0.2480329311
H        2.9291609659    2.6082974291    3.5976435601
H        4.3552089155    0.9951553284    2.3496350194
H        3.8095131548    4.8750145071    4.1393059492
H        6.6362924516    1.6417166436    1.6342175786
H        6.0964621222    5.5141057564    3.4326851191
H        8.9293028907    2.1118074601    2.2951108162
H       10.0213520546    3.5115601266    2.3297046488
H        8.9892243202    3.1485378414    3.7328145518
H        6.3465683989    4.5845952126   -1.2267556425
H        5.9845113871    5.1825664344    0.4168778655
H        7.1554013117    6.0728065489   -0.6351653427
H        8.1017818298    5.0726018797    2.3823632467
24   
torsion grid (120,)
C        3.9394984174    2.8858486506    3.2668860342
C        4.7431634922    1.9829191685    2.5613702435
C        4.4366473753    4.1532364186    3.5843788124
C        6.0369846656    2.3402449766    2.1762522928
C        5.7299648645    4.5132337469    3.1940371655
C        6.5425354029    3.6126791153    2.4892365339
C        9.0524475227    3.1305449941    2.6460943796
C        6.7479602613    5.0648752569   -0.3550727496
C        7.9378080686    4.0263184604    2.0921530428
O        9.3915482014    4.8176159870   -0.0188739989
O        7.9926733172    2.6944642767   -0.2612579035
S        8.1496402683    4.0691509423    0.2519493929
H        2.9337476284    2.6031644259    3.5664897865
H        4.3601613643    0.9978980458    2.3077281113
H        3.8211283529    4.8602424195    4.1343825744
H        6.6466420310    1.6441400967    1.6093165131
H        6.1131245702    5.5002152365    3.4458597893
H        8.9395693634    2.1019409760    2.2974866553
H       10.0349925175    3.4987680167    2.3409521622
H        8.9954331932    3.1350866718    3.7381850538
H        6.1659723125    4.4340613968   -1.0265266828
H        6.1325516073    5.3834342717    0.4870273101
H        7.1702422699    5.9244418132   -0.8757476587
H        8.1188836816    5.0645651861    2.3861096706
24   
torsion grid (135,)
C        3.9468656815    2.8812522959    3.2254204525
C        4.7638793330    1.9864773612    2.5248145185
C        4.4352335950    4.1480359154    3.5585913492
C        6.0617367904    2.3508189296    2.1601898968
C        5.7325556731    4.5148018656    3.1885528148
C        6.5587125090    3.6225611186    2.4894443469
C        9.0701228766    3.1455021480    2.6579838459
C        6.7418215909    5.0662707449   -0.3224378363
C        7.9563581814    4.0447055013    2.1091281893
O        9.3849275931    4.9103238234    0.0158442778
O        8.0691225043    2.7386511249   -0.2637661320
S        8.1721941124    4.1096922155    0.2710112728
H        2.9380799884    2.5928871914    3.5089941528
H        4.3879835517    1.0019438878    2.2589590441
H        3.8097425386    4.8491268200    4.1049169274
H        6.6815428460    1.6602402438    1.5972018039
H        6.1087596953    5.5012296367    3.4527562183
H        8.9641512240    2.1216107603    2.2937524367
H       10.0533699431    3.5217543250    2.3648276788
H        9.0060216515    3.1342344419    3.7496499836
H        6.0192916173    4.3791096288   -0.7604339583
H        6.2959994411    5.6036726742    0.5159139959
H        7.1328512663    5.7779502518   -1.0504334655
H        8.1327424662    5.0802443694    2.4143229963
24   
torsion grid (150,)
C        3.9343655562    2.8806493550    3.2059155064
C        4.7554004811    1.9780997467    2.5199942634
C        4.4232550452    4.1486670080    3.5335686908
C        6.0575979626    2.3360584561    2.1647627045
C        5.7250687692    4.5087865081    3.1729549956
C        6.5552434919    3.6088993257    2.4890489442
C        9.0661040165    3.1145253853    2.6484359774
C        6.7212268744    5.0602339716   -0.2877388766
C        7.9558325746    4.0255630943    2.1129114153
O        9.3624542986    4.9239243618    0.0165259863
O        8.0618504259    2.7450713474   -0.2763416013
S        8.1600224577    4.1093125697    0.2754812329
H        2.9221521819    2.5973351411    3.4822792193
H        4.3791535881    0.9926032240    2.2582679036
H        3.7946294124    4.8558779369    4.0682787971
H        6.6800736843    1.6393946723    1.6122240788
H        6.1012819225    5.4965273408    3.4319774122
H        8.9540071704    2.0951316271    2.2736154841
H       10.0503444290    3.4885405209    2.3555878871
H        9.0061596284    3.0920505710    3.7401501118
H        5.8904249793    4.3824076911   -0.4778065550
H        6.4585300408    5.7917097693    0.4784831106
H        7.0466175789    5.5823607071   -1.1889690485
H        8.1386353871    5.0568369562    2.4282376434
24   
torsion grid (165,)
C        3.9436730527    2.8580898350    3.1450295443
C        4.7878146292    1.9665161425    2.4728492075
C        4.4089341392    4.1332135202    3.4796422530
C        6.0901076367    2.3434040003    2.1383900742
C        5.7111377629    4.5118569045    3.1401142669
C        6.5644215139    3.6231606787    2.4702774500
C        9.0811655555    3.1463564535    2.6237806738
C        6.7298883183    5.1540663060   -0.2574562713
C        7.9627791973    4.0606937583    2.1113325601
O        9.3706532959    5.0147425787    0.0336065814
O        8.0654259151    2.8463662894   -0.3105555869
S        8.1686439631    4.1952960289    0.2769153652
H        2.9312709778    2.5606486295    3.4053619637
H        4.4297007579    0.9757930225    2.2055064130
H        3.7615350084    4.8315996432    4.0034326081
H        6.7302693717    1.6560642885    1.5946408281
H        6.0686877797    5.5054059459    3.4030092865
H        8.9819705212    2.1369879307    2.2194915190
H       10.0618806928    3.5393814338    2.3444063338
H        9.0188877891    3.0919907080    3.7142144697
H        5.8414779194    4.5246689705   -0.2277111291
H        6.6219697382    6.0236353185    0.3931789303
H        6.9586409172    5.4800901321   -1.2738236853
H        8.1354978003    5.0844725513    2.4556997930
24   
torsion grid (180,)
C        3.9383830822    2.8410248327    3.1532613727
C        4.7854615325    1.9512189748    2.4824850573
C        4.4006333057    4.1176336306    3.4865299674
C        6.0871767630    2.3304328772    2.1482200761
C        5.7021137061    4.4989537859    3.1471635383
C        6.5581377159    3.6117353747    2.4786074028
C        9.0751451345    3.1381770485    2.6335781274
C        6.7522081202    5.1737793705   -0.2541873477
C        7.9557458403    4.0522641392    2.1217800574
O        9.3910571888    4.9847118056    0.0467246067
O        8.0385662312    2.8461455049   -0.3005695212
S        8.1708811049    4.1924905306    0.2877891259
H        2.9265482420    2.5413662471    3.4132818612
H        4.4298613145    0.9594471731    2.2157339910
H        3.7512529361    4.8152028262    4.0089576803
H        6.7287972366    1.6443211465    1.6048677868
H        6.0566239473    5.4941649960    3.4075816989
H        8.9782093363    2.1297833550    2.2263658483
H       10.0556057903    3.5336429273    2.3569604320
H        9.0108647147    3.0807703496    3.7237018446
H        5.8319520708    4.6459617973   -0.0057616191
H        6.7942961973    6.1549027346    0.2211810348
H        6.8616538060    5.2676166121   -1.3363581351
H        8.1265063753    5.0748041605    2.4713631761
