30
1 1 C12H15N2O
C                     0.565729787824    -1.489960080495     1.791424897182
C                    -0.821002291866    -1.282387620806     1.753280793108
C                     1.404387495229    -0.920178197557     0.825978028759
C                    -1.388612103441    -0.493474312196     0.747177271340
C                     0.840156406059    -0.135509620442    -0.181023453818
C                    -0.545064650440     0.072370778050    -0.210607888963
C                    -2.295178302067     2.838754795063    -0.435171170532
C                     1.520921021983     0.579845124242    -1.329841820010
C                     0.339630659360     0.942973961144    -2.265684176305
C                    -3.986732325127     4.240231461085     0.290558723088
C                    -4.517482525639     2.819349210568     0.032631728571
C                    -0.911356083190     0.983133394290    -1.361550441272
N                    -2.535864295594     3.997586067224     0.197019533669
N                    -1.137816232222     2.386514759596    -0.866266888067
O                    -3.393449904518     2.124225889626    -0.618067260787
H                     0.992011035221    -2.110986240947     2.574319645828
H                    -1.455887582299    -1.748221679054     2.501493277950
H                     2.476164644687    -1.098564671374     0.858274867532
H                    -2.465446668295    -0.347200571110     0.703420184593
H                     2.053529200725     1.471756225694    -0.973969939456
H                     2.263814185753    -0.042368181781    -1.835563737660
H                     0.483021675841     1.867709797971    -2.831707429934
H                     0.191075910491     0.139269593860    -2.991107644570
H                    -4.310433088830     4.956389179268    -0.470093606704
H                    -4.256055209086     4.609281558136     1.280984369845
H                    -4.736838682289     2.272040769379     0.950244575555
H                    -5.361378277789     2.773256721913    -0.652594867260
H                    -1.824922417879     0.702072401988    -1.885131814610
H                    -1.845432442839     4.734198495474     0.282980963641
H                    -0.310542640065     2.931038601511    -0.642881396216
