
  -OEChem-05262117483D

 35 36  0     1  0  0  0  0  0999 V2000
   -2.2908   -3.1291    5.4965 C   0  0  0  0  0  0  0  0  0  0  0  0
   -2.1025   -4.3350    4.8327 C   0  0  0  0  0  0  0  0  0  0  0  0
   -2.2412   -1.9007    4.8193 C   0  0  0  0  0  0  0  0  0  0  0  0
   -1.8518   -3.1318    2.7092 C   0  0  0  0  0  0  0  0  0  0  0  0
   -1.8783   -4.3343    3.4496 C   0  0  0  0  0  0  0  0  0  0  0  0
   -2.0379   -1.9422    3.4327 C   0  0  0  0  0  0  0  0  0  0  0  0
   -2.3879   -0.6004    5.6322 C   0  0  0  0  0  0  0  0  0  0  0  0
   -4.2489   -2.3541   -1.3183 C   0  0  0  0  0  0  0  0  0  0  0  0
   -4.8524   -3.6916   -1.7505 C   0  0  0  0  0  0  0  0  0  0  0  0
   -2.6001   -4.1181   -1.5390 C   0  0  0  0  0  0  0  0  0  0  0  0
   -2.8594   -2.7680   -0.8112 C   0  0  2  0  0  0  0  0  0  0  0  0
    0.2716   -5.9313    2.5598 C   0  0  0  0  0  0  0  0  0  0  0  0
   -1.6579   -3.0850    1.2126 C   0  0  0  0  0  0  0  0  0  0  0  0
   -1.2906   -0.0620    5.9158 O   0  5  0  0  0  0  0  0  0  0  0  0
   -3.5696   -0.3019    5.9235 O   0  0  0  0  0  0  0  0  0  0  0  0
   -1.8493   -6.9790    3.7307 O   0  0  0  0  0  0  0  0  0  0  0  0
   -2.0944   -6.0694    1.3682 O   0  0  0  0  0  0  0  0  0  0  0  0
   -3.7568   -4.3918   -2.3501 O   0  0  0  0  0  0  0  0  0  0  0  0
   -2.9362   -2.9213    0.6007 O   0  0  0  0  0  0  0  0  0  0  0  0
   -1.5351   -5.9428    2.7283 S   0  0  0  0  0  0  0  0  0  0  0  0
   -2.0211   -0.4049    2.5621 Cl  0  0  0  0  0  0  0  0  0  0  0  0
   -2.4793   -3.1214    6.5668 H   0  0  0  0  0  0  0  0  0  0  0  0
   -2.1344   -5.2800    5.3646 H   0  0  0  0  0  0  0  0  0  0  0  0
   -4.1529   -1.6913   -2.1842 H   0  0  0  0  0  0  0  0  0  0  0  0
   -4.8058   -1.8411   -0.5315 H   0  0  0  0  0  0  0  0  0  0  0  0
   -5.2357   -4.2460   -0.8817 H   0  0  0  0  0  0  0  0  0  0  0  0
   -5.6427   -3.6081   -2.5019 H   0  0  0  0  0  0  0  0  0  0  0  0
   -1.7347   -4.0916   -2.2092 H   0  0  0  0  0  0  0  0  0  0  0  0
   -2.4653   -4.9094   -0.7925 H   0  0  0  0  0  0  0  0  0  0  0  0
   -2.0944   -2.0165   -1.0528 H   0  0  0  0  0  0  0  0  0  0  0  0
    0.5493   -6.9010    2.1403 H   0  0  0  0  0  0  0  0  0  0  0  0
    0.5679   -5.1224    1.8906 H   0  0  0  0  0  0  0  0  0  0  0  0
    0.7075   -5.7948    3.5503 H   0  0  0  0  0  0  0  0  0  0  0  0
   -1.0171   -2.2319    0.9523 H   0  0  0  0  0  0  0  0  0  0  0  0
   -1.1825   -3.9965    0.8419 H   0  0  0  0  0  0  0  0  0  0  0  0
  1  2  1  0  0  0  0
  1  3  2  0  0  0  0
  1 22  1  0  0  0  0
  2  5  2  0  0  0  0
  2 23  1  0  0  0  0
  3  6  1  0  0  0  0
  3  7  1  0  0  0  0
  4  5  1  0  0  0  0
  4  6  2  0  0  0  0
  4 13  1  0  0  0  0
  5 20  1  0  0  0  0
  6 21  1  0  0  0  0
  7 14  1  0  0  0  0
  7 15  2  0  0  0  0
  8  9  1  0  0  0  0
  8 11  1  0  0  0  0
  8 24  1  0  0  0  0
  8 25  1  0  0  0  0
  9 18  1  0  0  0  0
  9 26  1  0  0  0  0
  9 27  1  0  0  0  0
 10 11  1  0  0  0  0
 10 18  1  0  0  0  0
 10 28  1  0  0  0  0
 10 29  1  0  0  0  0
 11 19  1  0  0  0  0
 11 30  1  0  0  0  0
 12 20  1  0  0  0  0
 12 31  1  0  0  0  0
 12 32  1  0  0  0  0
 12 33  1  0  0  0  0
 13 19  1  0  0  0  0
 13 34  1  0  0  0  0
 13 35  1  0  0  0  0
 16 20  2  0  0  0  0
 17 20  2  0  0  0  0
M  CHG  1  14  -1
M  END
$$$$
