35
0 1 C15H18O2
C                    -0.395205739043     0.024130692477    -0.541815110775
C                    -1.286479457128     0.541811311283    -1.185795110631
C                     1.756840155446    -1.172884620761    -0.420155804221
C                     0.603964883919    -0.608233428387     1.621381537104
C                     0.654615101805    -0.583109443826     0.218742020037
C                     2.787199430142    -1.774481156198     0.307231445964
C                     1.617924237174    -1.201264516280     2.377759046386
C                     2.722124545298    -1.785349334249     1.717982815745
C                     3.456729079415    -3.871000491263     2.912383845393
C                    -2.361962683306     1.164791892511    -1.960979149347
C                     5.113955355652    -1.323568963939    -0.603267634734
C                     2.203172652329     0.113828065931     4.466036986156
C                     3.825314061448    -2.447213777541     2.538221589564
C                     3.965654969280    -2.340310662175    -0.462327401961
C                     1.512290803149    -1.136756210892     3.890205803351
O                     3.004035824834    -4.229145796491     3.982138283756
O                     3.673949566802    -4.744529886746     1.891518602535
H                     1.803969355175    -1.160409320937    -1.505915387242
H                    -0.246527083329    -0.157164356252     2.125883881204
H                    -2.678011618628     2.108954692593    -1.504372184785
H                    -2.034990646631     1.376877159578    -2.984416881379
H                    -3.237409409534     0.508241102804    -2.015893164983
H                     4.772921725795    -0.425203699719    -1.127776274715
H                     5.949777435223    -1.753149043858    -1.166197487726
H                     5.492988692997    -1.005479325497     0.373938577914
H                     3.270671610418     0.132472540136     4.220957488254
H                     2.107496454829     0.143975450376     5.556730188855
H                     1.758887483865     1.026920183754     4.056675153466
H                     3.997071056088    -1.910036979102     3.469938268653
H                     4.763353709691    -2.465635907357     1.983392942240
H                     4.330407067859    -3.259005602469     0.002303190892
H                     3.624613872733    -2.624540351739    -1.463303852737
H                     0.452676580207    -1.110285343328     4.165432452860
H                     1.922646557643    -2.036414868884     4.353343100449
H                     3.368938394953    -5.616781869610     2.208684070020
