74
0 1 C32FH37O3S
C                     3.602171080929    -0.888201055903    -4.488310621173
C                     3.894501272356    -1.596209635547    -3.316721293929
C                     2.716997416097     0.193353526248    -4.432975893780
C                     3.301523938284    -1.232282111481    -2.107641131878
C                     2.132265895950     0.561693224061    -3.218691099233
C                     1.163447544266    -3.096465610107     0.633881912232
C                     0.328427014708    -2.397949670565    -1.508593383768
C                    -0.473374468368    -0.583917296340     1.973351735875
C                     0.907121919365    -4.433796859304     0.313386036221
C                     0.058372892513    -3.719287792720    -1.840158556922
C                    -0.895185919912    -0.187076161586     3.241807808799
C                     1.227888368976     0.935451167333     3.562085489171
C                     0.899225076643    -2.055963839236    -0.267076299153
C                     2.402809475315    -0.151679979516    -2.037194219912
C                     0.783124094049    -0.218714079481     1.466111921022
C                     1.649436978200     0.544010571771     2.289189460696
C                     0.352347301035    -4.751240668711    -0.933778935597
C                    -0.038299221789     0.581209650014     4.038762891184
C                     1.192330787856    -0.645394527582     0.100541082351
C                     1.786474539628     0.242158063984    -0.744563934977
C                     3.032867494813     0.907437684699     1.800214117893
C                     1.894723691314     1.702225828740    -0.342266342877
C                     3.026492512831     1.960437340677     0.672843542178
C                     0.731838075036    -8.673024910437    -2.448514357539
C                    -0.069935949035    -8.397795133491    -1.171531128334
C                     1.906465694402   -12.578702140894    -9.065936756232
C                     0.313077324820    -9.981751422011    -3.129289355920
C                     1.130225396806   -12.714244353360    -7.749695584302
C                     0.333921302933    -7.109416041303    -0.469822382217
C                     1.560475520909   -13.657871239806   -10.077466498161
C                     1.093835816817   -10.234239850663    -4.416940570146
C                     1.489382711115   -11.604085837934    -6.764642223964
O                    -0.958007684612   -11.502204847136    -5.629723035883
O                    -0.381872521250     1.006048751927     5.301050313613
O                     0.053044977603    -6.019707007672    -1.352476131630
F                     0.207575158493   -13.560983464623   -10.447909215002
S                     0.484649149769   -11.775914186829    -5.226644357053
H                     4.061309216509    -1.173330807110    -5.431436260381
H                     4.587677999054    -2.433412126789    -3.345511100699
H                     2.479748248633     0.749963595734    -5.336365452193
H                     3.528493610885    -1.789686502419    -1.203969310341
H                     1.436029662416     1.396318913335    -3.193791115386
H                     1.584465558084    -2.860829507075     1.607677519547
H                     0.093721787308    -1.613245141150    -2.220719507163
H                    -1.134971444331    -1.187414223559     1.358397746328
H                     1.137546722269    -5.205668264557     1.038874968998
H                    -0.386775729114    -3.977855477962    -2.796703135339
H                    -1.879924472727    -0.474290971546     3.607766098036
H                     1.882699896070     1.514617801723     4.207881582879
H                     3.644797924531     1.262192652082     2.635292830485
H                     3.511548965008    -0.000332259787     1.415808319500
H                     2.060353231904     2.328368450182    -1.223071332329
H                     0.948950340392     2.021216745932     0.108345414313
H                     2.894090639021     2.965002348498     1.092499861322
H                     4.001075773966     1.945723303746     0.171033016714
H                     0.596717653849    -7.836404191328    -3.142336955606
H                     1.802794333054    -8.707530836519    -2.204643198755
H                    -1.139722312660    -8.351375062975    -1.406517989138
H                     0.063517590397    -9.222656788839    -0.459759627755
H                     2.987629558560   -12.634503840717    -8.878617252505
H                     1.712947080739   -11.598428917677    -9.517812643693
H                     0.458832805621   -10.822444932355    -2.438534128263
H                    -0.754993075864    -9.950176439162    -3.370229793726
H                     0.055751031105   -12.679100546485    -7.950762185901
H                     1.342340350714   -13.692044842599    -7.298211467897
H                     1.405479801660    -7.120810285004    -0.224425399155
H                    -0.231206143638    -6.985504535374     0.463714946941
H                     1.708726522060   -14.662155159276    -9.664702336470
H                     2.152339778345   -13.552402903778   -10.992551121643
H                     0.946556083394    -9.418169437483    -5.132671305822
H                     2.166115764002   -10.362607594926    -4.227814180250
H                     1.260707611492   -10.617077845150    -7.181216371612
H                     2.546059312608   -11.639483226529    -6.473721220865
H                    -1.278681062535     0.695841525545     5.503457792055
