74
0 1 C32FH37O3S
C                     3.930528350081    -0.014750095066    -4.389507949460
C                     4.425621097858    -0.695475509543    -3.271118733410
C                     2.721908392283     0.681919862693    -4.288474568259
C                     3.715451681285    -0.687141968620    -2.070495796872
C                     2.017606312701     0.696545585240    -3.081835320761
C                     2.317611251175    -3.450408629145     0.359188631017
C                     1.336186559514    -2.868447992000    -1.755811561951
C                    -0.140803964350    -1.825837164189     1.821129852436
C                     2.566959113625    -4.748741348869    -0.098164610999
C                     1.567241019797    -4.155443021193    -2.223604068014
C                    -0.707128563234    -1.736340327731     3.092248379952
C                     0.872981697070     0.017166646300     3.638166196350
C                     1.718484137067    -2.481145271177    -0.456594174349
C                     2.493644077053     0.001595278786    -1.955613265972
C                     0.917298420468    -0.993616532420     1.424702693015
C                     1.437470855382    -0.067150026816     2.363222003357
C                     2.193566376713    -5.106019322066    -1.400832461560
C                    -0.197715645123    -0.804611085975     4.004328266440
C                     1.483859413395    -1.104278838022     0.053282800425
C                     1.747389569057     0.018403354609    -0.671476015972
C                     2.615243083864     0.805088530822     1.992947522535
C                     1.323374676526     1.373698492617    -0.134213697204
C                     2.265411882879     1.902127261499     0.966375468592
C                     3.803316561684    -9.755054688432    -1.242486574308
C                     3.133517836382    -8.607338339072    -2.006458998963
C                     7.076161905080   -16.801014275181    -0.943451263113
C                     3.931009515043   -11.026549323359    -2.091158219577
C                     6.243758701881   -15.936183298892    -1.898784602520
C                     3.026702664977    -7.345315436456    -1.163296485340
C                     7.578017034892   -18.083976217305    -1.583613540441
C                     4.597478292202   -12.166049826098    -1.323532471878
C                     5.771343885801   -14.647720623164    -1.229008917595
O                     5.835686267675   -13.179681089484    -3.494357547923
O                    -0.701083486200    -0.660812079156     5.276496342868
O                     2.384231830900    -6.344044276308    -1.954229483442
F                     8.445891351655   -17.787650722062    -2.649317058464
S                     4.831102680442   -13.618170883765    -2.437655212542
H                     4.481419966583    -0.024483468465    -5.326488814648
H                     5.367990770378    -1.233914009330    -3.335153160606
H                     2.325470035472     1.212824948083    -5.150562596811
H                     4.102655229007    -1.222711015566    -1.209089168647
H                     1.072703759921     1.231003233041    -3.022630043079
H                     2.604484524871    -3.186250906354     1.373615194832
H                     0.852680871737    -2.146087269137    -2.405751801150
H                    -0.530586451916    -2.554573810970     1.116063275830
H                     3.044598210551    -5.461038920388     0.565025754587
H                     1.269730723238    -4.450308564138    -3.225802013254
H                    -1.535495975268    -2.386029557012     3.371367170180
H                     1.264388928010     0.717803035967     4.371100282057
H                     3.041760555968     1.260986784221     2.891796915109
H                     3.392744998139     0.166938084705     1.558014058406
H                     1.279655759331     2.107083643687    -0.943830360375
H                     0.314832563293     1.294026317918     0.285107938522
H                     1.776381701442     2.747252710359     1.465812946481
H                     3.194517786823     2.281229275462     0.524975077941
H                     4.802378401686    -9.442385263990    -0.910630930492
H                     3.229584455537    -9.975784313948    -0.331939825327
H                     3.702020735044    -8.378588233871    -2.914975972333
H                     2.128021783593    -8.903595120655    -2.327075881927
H                     6.479731446287   -17.080554152883    -0.064127705262
H                     7.937957632017   -16.231945987712    -0.574567534085
H                     2.937060812797   -11.342464154591    -2.432011294169
H                     4.522773874404   -10.814685866212    -2.988091614933
H                     6.840021321539   -15.682530341702    -2.779832680107
H                     5.376242876220   -16.509509473200    -2.250309334624
H                     4.023883174160    -6.997756511831    -0.859011376374
H                     2.440170047860    -7.535315053418    -0.253230393311
H                     6.755542291562   -18.679420739578    -1.995763475560
H                     8.142230370167   -18.692666627256    -0.869526201635
H                     5.593740948805   -11.876041648396    -0.971973099835
H                     3.992084889112   -12.494832008675    -0.470715792102
H                     6.620601055070   -14.043068205754    -0.892473960792
H                     5.107368152442   -14.846490749131    -0.379261926025
H                    -1.436587748578    -1.282443321999     5.394903082863
