
  -OEChem-05262117483D

 36 37  0     1  0  0  0  0  0999 V2000
   -1.9826   -2.3037    5.7989 C   0  0  0  0  0  0  0  0  0  0  0  0
   -1.8122   -3.5556    5.2212 C   0  0  0  0  0  0  0  0  0  0  0  0
   -2.1253   -1.1586    5.0041 C   0  0  0  0  0  0  0  0  0  0  0  0
   -1.9607   -2.5552    2.9864 C   0  0  0  0  0  0  0  0  0  0  0  0
   -1.8056   -3.6685    3.8310 C   0  0  0  0  0  0  0  0  0  0  0  0
   -2.1143   -1.2951    3.6013 C   0  0  0  0  0  0  0  0  0  0  0  0
   -2.2269    0.1667    5.6965 C   0  0  0  0  0  0  0  0  0  0  0  0
    1.2885   -2.4350   -0.3691 C   0  0  0  0  0  0  0  0  0  0  0  0
    1.1206   -1.0296   -0.9527 C   0  0  0  0  0  0  0  0  0  0  0  0
   -0.8535   -2.2246   -1.3750 C   0  0  0  0  0  0  0  0  0  0  0  0
   -0.1632   -2.8636   -0.1614 C   0  0  2  0  0  0  0  0  0  0  0  0
   -3.2640   -5.8406    2.7236 C   0  0  0  0  0  0  0  0  0  0  0  0
   -1.9015   -2.6572    1.4756 C   0  0  0  0  0  0  0  0  0  0  0  0
   -1.8362    1.2332    5.2731 O   0  0  0  0  0  0  0  0  0  0  0  0
   -0.7414   -5.3674    2.0048 O   0  0  0  0  0  0  0  0  0  0  0  0
   -1.2231   -6.2025    4.3651 O   0  0  0  0  0  0  0  0  0  0  0  0
   -0.0738   -1.0830   -1.7558 O   0  0  0  0  0  0  0  0  0  0  0  0
   -2.7978    0.0393    6.9284 O   0  0  0  0  0  0  0  0  0  0  0  0
   -0.5852   -2.2950    1.0853 O   0  0  0  0  0  0  0  0  0  0  0  0
   -1.5852   -5.3709    3.2082 S   0  0  0  0  0  0  0  0  0  0  0  0
   -2.3271    0.1044    2.5802 Cl  0  0  0  0  0  0  0  0  0  0  0  0
   -1.9940   -2.1996    6.8777 H   0  0  0  0  0  0  0  0  0  0  0  0
   -1.6736   -4.4405    5.8325 H   0  0  0  0  0  0  0  0  0  0  0  0
    1.7665   -3.1028   -1.0928 H   0  0  0  0  0  0  0  0  0  0  0  0
    1.8504   -2.4609    0.5665 H   0  0  0  0  0  0  0  0  0  0  0  0
    0.9936   -0.2862   -0.1558 H   0  0  0  0  0  0  0  0  0  0  0  0
    1.9487   -0.7236   -1.5985 H   0  0  0  0  0  0  0  0  0  0  0  0
   -0.8879   -2.9360   -2.2119 H   0  0  0  0  0  0  0  0  0  0  0  0
   -1.8771   -1.9028   -1.1540 H   0  0  0  0  0  0  0  0  0  0  0  0
   -0.2954   -3.9506   -0.1205 H   0  0  0  0  0  0  0  0  0  0  0  0
   -3.1931   -6.8680    2.3601 H   0  0  0  0  0  0  0  0  0  0  0  0
   -3.9060   -5.7872    3.6036 H   0  0  0  0  0  0  0  0  0  0  0  0
   -3.6196   -5.1796    1.9326 H   0  0  0  0  0  0  0  0  0  0  0  0
   -2.1230   -3.6728    1.1419 H   0  0  0  0  0  0  0  0  0  0  0  0
   -2.6443   -1.9853    1.0309 H   0  0  0  0  0  0  0  0  0  0  0  0
   -2.7808    0.9326    7.3228 H   0  0  0  0  0  0  0  0  0  0  0  0
  1  2  1  0  0  0  0
  1  3  2  0  0  0  0
  1 22  1  0  0  0  0
  2  5  2  0  0  0  0
  2 23  1  0  0  0  0
  3  6  1  0  0  0  0
  3  7  1  0  0  0  0
  4  5  1  0  0  0  0
  4  6  2  0  0  0  0
  4 13  1  0  0  0  0
  5 20  1  0  0  0  0
  6 21  1  0  0  0  0
  7 14  2  0  0  0  0
  7 18  1  0  0  0  0
  8  9  1  0  0  0  0
  8 11  1  0  0  0  0
  8 24  1  0  0  0  0
  8 25  1  0  0  0  0
  9 17  1  0  0  0  0
  9 26  1  0  0  0  0
  9 27  1  0  0  0  0
 10 11  1  0  0  0  0
 10 17  1  0  0  0  0
 10 28  1  0  0  0  0
 10 29  1  0  0  0  0
 11 19  1  0  0  0  0
 11 30  1  0  0  0  0
 12 20  1  0  0  0  0
 12 31  1  0  0  0  0
 12 32  1  0  0  0  0
 12 33  1  0  0  0  0
 13 19  1  0  0  0  0
 13 34  1  0  0  0  0
 13 35  1  0  0  0  0
 15 20  2  0  0  0  0
 16 20  2  0  0  0  0
 18 36  1  0  0  0  0
M  END
$$$$
