36
0 1 C13ClH15O6S
C                    -1.982584745762    -2.303698563169     5.798940995931
C                    -1.812185683346    -3.555628902771     5.221180914567
C                    -2.125255721396    -1.158638974454     5.004071850734
C                    -1.960664839251    -2.555228307928     2.986411879464
C                    -1.805623504926    -3.668476106992     3.831020570902
C                    -2.114283491229    -1.295051080170     3.601263499678
C                    -2.226865482415     0.166738203888     5.696549899469
C                     1.288505592000    -2.434964420511    -0.369138247391
C                     1.120591006005    -1.029586294960    -0.952683283438
C                    -0.853461408123    -2.224572197721    -1.375015328938
C                    -0.163206734481    -2.863575047781    -0.161433636277
C                    -3.263997616853    -5.840607012472     2.723624011259
C                    -1.901467393392    -2.657193739534     1.475584335971
O                    -1.836239417582     1.233205298167     5.273054373202
O                    -0.741411081281    -5.367364060516     2.004801615939
O                    -1.223077248530    -6.202502644218     4.365117817272
O                    -0.073808118606    -1.083017884141    -1.755848599064
O                    -2.797754245324     0.039297784478     6.928361821123
O                    -0.585160259523    -2.295022380002     1.085250980220
S                    -1.585200728108    -5.370937319047     3.208202664040
Cl                   -2.327081046696     0.104439181605     2.580209319389
H                    -1.993957319655    -2.199608469186     6.877718281453
H                    -1.673592452046    -4.440505106510     5.832454894663
H                     1.766514139286    -3.102756468787    -1.092840688488
H                     1.850411164291    -2.460863480349     0.566504709639
H                     0.993591142497    -0.286217295043    -0.155769863175
H                     1.948742910620    -0.723637167089    -1.598512286678
H                    -0.887927132612    -2.935953901074    -2.211888793667
H                    -1.877124643731    -1.902841100389    -1.154000715036
H                    -0.295389592428    -3.950594966872    -0.120450967436
H                    -3.193068254024    -6.868043572640     2.360118987570
H                    -3.906026572084    -5.787188557469     3.603624238592
H                    -3.619604464294    -5.179612615891     1.932648985903
H                    -2.123026567687    -3.672750451243     1.141903935671
H                    -2.644284890113    -1.985347897485     1.030854097722
H                    -2.780796560521     0.932628043957     7.322843132439
