
  -OEChem-05262117483D

 74 77  0     1  0  0  0  0  0999 V2000
    3.3560   -2.7752   -3.6372 C   0  0  0  0  0  0  0  0  0  0  0  0
    3.5796   -2.8758   -2.2588 C   0  0  0  0  0  0  0  0  0  0  0  0
    2.5992   -1.7083   -4.1325 C   0  0  0  0  0  0  0  0  0  0  0  0
    3.0447   -1.9266   -1.3878 C   0  0  0  0  0  0  0  0  0  0  0  0
    2.0728   -0.7537   -3.2584 C   0  0  0  0  0  0  0  0  0  0  0  0
    0.7605   -2.0676    1.8047 C   0  0  0  0  0  0  0  0  0  0  0  0
   -0.0426   -2.3475   -0.4431 C   0  0  0  0  0  0  0  0  0  0  0  0
   -0.5873    0.9365    1.7589 C   0  0  0  0  0  0  0  0  0  0  0  0
    0.3635   -3.3629    2.1161 C   0  0  0  0  0  0  0  0  0  0  0  0
   -0.4561   -3.6488   -0.1456 C   0  0  0  0  0  0  0  0  0  0  0  0
   -0.9489    1.9187    2.6801 C   0  0  0  0  0  0  0  0  0  0  0  0
    1.2836    2.8462    2.5201 C   0  0  0  0  0  0  0  0  0  0  0  0
    0.5840   -1.5363    0.5122 C   0  0  0  0  0  0  0  0  0  0  0  0
    2.2740   -0.8522   -1.8700 C   0  0  0  0  0  0  0  0  0  0  0  0
    0.6937    0.8974    1.1870 C   0  0  0  0  0  0  0  0  0  0  0  0
    1.6459    1.8662    1.5932 C   0  0  0  0  0  0  0  0  0  0  0  0
   -0.2449   -4.1677    1.1394 C   0  0  0  0  0  0  0  0  0  0  0  0
   -0.0066    2.8820    3.0589 C   0  0  0  0  0  0  0  0  0  0  0  0
    1.0382   -0.1566    0.1955 C   0  0  0  0  0  0  0  0  0  0  0  0
    1.7195    0.1642   -0.9394 C   0  0  0  0  0  0  0  0  0  0  0  0
    3.0558    1.8171    1.0500 C   0  0  0  0  0  0  0  0  0  0  0  0
    1.9926    1.6224   -1.2626 C   0  0  0  0  0  0  0  0  0  0  0  0
    3.1548    2.2114   -0.4379 C   0  0  0  0  0  0  0  0  0  0  0  0
   -2.1093   -8.6457    0.3024 C   0  0  0  0  0  0  0  0  0  0  0  0
   -1.4706   -7.6302    1.2564 C   0  0  0  0  0  0  0  0  0  0  0  0
   -5.7170  -15.3874   -1.0972 C   0  0  0  0  0  0  0  0  0  0  0  0
   -2.3895   -9.9910    0.9841 C   0  0  0  0  0  0  0  0  0  0  0  0
   -4.9359  -14.6873    0.0223 C   0  0  0  0  0  0  0  0  0  0  0  0
   -1.2043   -6.2955    0.5764 C   0  0  0  0  0  0  0  0  0  0  0  0
   -6.3644  -16.6870   -0.6504 C   0  0  0  0  0  0  0  0  0  0  0  0
   -3.0269  -10.9984    0.0298 C   0  0  0  0  0  0  0  0  0  0  0  0
   -4.3185  -13.3745   -0.4544 C   0  0  0  0  0  0  0  0  0  0  0  0
   -4.5292  -12.1560    1.9460 O   0  0  0  0  0  0  0  0  0  0  0  0
   -0.2877    3.8781    3.9646 O   0  0  0  0  0  0  0  0  0  0  0  0
   -0.6006   -5.4284    1.5382 O   0  0  0  0  0  0  0  0  0  0  0  0
   -7.3200  -16.4345    0.3496 F   0  0  0  0  0  0  0  0  0  0  0  0
   -3.4492  -12.5436    0.9453 S   0  0  2  0  0  0  0  0  0  0  0  0
    3.7709   -3.5155   -4.3164 H   0  0  0  0  0  0  0  0  0  0  0  0
    4.1745   -3.6949   -1.8622 H   0  0  0  0  0  0  0  0  0  0  0  0
    2.4174   -1.6192   -5.2009 H   0  0  0  0  0  0  0  0  0  0  0  0
    3.2177   -2.0146   -0.3196 H   0  0  0  0  0  0  0  0  0  0  0  0
    1.4760    0.0629   -3.6572 H   0  0  0  0  0  0  0  0  0  0  0  0
    1.2242   -1.4544    2.5727 H   0  0  0  0  0  0  0  0  0  0  0  0
   -0.2093   -1.9585   -1.4427 H   0  0  0  0  0  0  0  0  0  0  0  0
   -1.3157    0.1832    1.4723 H   0  0  0  0  0  0  0  0  0  0  0  0
    0.5133   -3.7741    3.1103 H   0  0  0  0  0  0  0  0  0  0  0  0
   -0.9379   -4.2387   -0.9170 H   0  0  0  0  0  0  0  0  0  0  0  0
   -1.9529    1.9328    3.1020 H   0  0  0  0  0  0  0  0  0  0  0  0
    2.0039    3.5914    2.8474 H   0  0  0  0  0  0  0  0  0  0  0  0
    3.7102    2.4591    1.6478 H   0  0  0  0  0  0  0  0  0  0  0  0
    3.4295    0.7924    1.1565 H   0  0  0  0  0  0  0  0  0  0  0  0
    2.2181    1.7407   -2.3258 H   0  0  0  0  0  0  0  0  0  0  0  0
    1.0918    2.2099   -1.0554 H   0  0  0  0  0  0  0  0  0  0  0  0
    3.1372    3.3029   -0.5436 H   0  0  0  0  0  0  0  0  0  0  0  0
    4.1174    1.8642   -0.8313 H   0  0  0  0  0  0  0  0  0  0  0  0
   -3.0503   -8.2391   -0.0917 H   0  0  0  0  0  0  0  0  0  0  0  0
   -1.4522   -8.8012   -0.5641 H   0  0  0  0  0  0  0  0  0  0  0  0
   -2.1242   -7.4637    2.1202 H   0  0  0  0  0  0  0  0  0  0  0  0
   -0.5238   -8.0222    1.6455 H   0  0  0  0  0  0  0  0  0  0  0  0
   -5.0509  -15.6208   -1.9391 H   0  0  0  0  0  0  0  0  0  0  0  0
   -6.4974  -14.7216   -1.4850 H   0  0  0  0  0  0  0  0  0  0  0  0
   -1.4542  -10.4020    1.3845 H   0  0  0  0  0  0  0  0  0  0  0  0
   -3.0618   -9.8414    1.8356 H   0  0  0  0  0  0  0  0  0  0  0  0
   -5.6033  -14.4822    0.8641 H   0  0  0  0  0  0  0  0  0  0  0  0
   -4.1466  -15.3548    0.3914 H   0  0  0  0  0  0  0  0  0  0  0  0
   -2.1417   -5.8533    0.2108 H   0  0  0  0  0  0  0  0  0  0  0  0
   -0.5312   -6.4250   -0.2827 H   0  0  0  0  0  0  0  0  0  0  0  0
   -5.6299  -17.3798   -0.2246 H   0  0  0  0  0  0  0  0  0  0  0  0
   -6.8872  -17.1781   -1.4776 H   0  0  0  0  0  0  0  0  0  0  0  0
   -3.9646  -10.6115   -0.3839 H   0  0  0  0  0  0  0  0  0  0  0  0
   -2.3523  -11.2708   -0.7902 H   0  0  0  0  0  0  0  0  0  0  0  0
   -5.0898  -12.6800   -0.8048 H   0  0  0  0  0  0  0  0  0  0  0  0
   -3.5823  -13.5321   -1.2517 H   0  0  0  0  0  0  0  0  0  0  0  0
   -1.2071    3.7836    4.2599 H   0  0  0  0  0  0  0  0  0  0  0  0
  1  2  1  0  0  0  0
  1  3  2  0  0  0  0
  1 38  1  0  0  0  0
  2  4  2  0  0  0  0
  2 39  1  0  0  0  0
  3  5  1  0  0  0  0
  3 40  1  0  0  0  0
  4 14  1  0  0  0  0
  4 41  1  0  0  0  0
  5 14  2  0  0  0  0
  5 42  1  0  0  0  0
  6  9  2  0  0  0  0
  6 13  1  0  0  0  0
  6 43  1  0  0  0  0
  7 10  1  0  0  0  0
  7 13  2  0  0  0  0
  7 44  1  0  0  0  0
  8 11  2  0  0  0  0
  8 15  1  0  0  0  0
  8 45  1  0  0  0  0
  9 17  1  0  0  0  0
  9 46  1  0  0  0  0
 10 17  2  0  0  0  0
 10 47  1  0  0  0  0
 11 18  1  0  0  0  0
 11 48  1  0  0  0  0
 12 16  1  0  0  0  0
 12 18  2  0  0  0  0
 12 49  1  0  0  0  0
 13 19  1  0  0  0  0
 14 20  1  0  0  0  0
 15 16  2  0  0  0  0
 15 19  1  0  0  0  0
 16 21  1  0  0  0  0
 17 35  1  0  0  0  0
 18 34  1  0  0  0  0
 19 20  2  0  0  0  0
 20 22  1  0  0  0  0
 21 23  1  0  0  0  0
 21 50  1  0  0  0  0
 21 51  1  0  0  0  0
 22 23  1  0  0  0  0
 22 52  1  0  0  0  0
 22 53  1  0  0  0  0
 23 54  1  0  0  0  0
 23 55  1  0  0  0  0
 24 25  1  0  0  0  0
 24 27  1  0  0  0  0
 24 56  1  0  0  0  0
 24 57  1  0  0  0  0
 25 29  1  0  0  0  0
 25 58  1  0  0  0  0
 25 59  1  0  0  0  0
 26 28  1  0  0  0  0
 26 30  1  0  0  0  0
 26 60  1  0  0  0  0
 26 61  1  0  0  0  0
 27 31  1  0  0  0  0
 27 62  1  0  0  0  0
 27 63  1  0  0  0  0
 28 32  1  0  0  0  0
 28 64  1  0  0  0  0
 28 65  1  0  0  0  0
 29 35  1  0  0  0  0
 29 66  1  0  0  0  0
 29 67  1  0  0  0  0
 30 36  1  0  0  0  0
 30 68  1  0  0  0  0
 30 69  1  0  0  0  0
 31 37  1  0  0  0  0
 31 70  1  0  0  0  0
 31 71  1  0  0  0  0
 32 37  1  0  0  0  0
 32 72  1  0  0  0  0
 32 73  1  0  0  0  0
 33 37  2  0  0  0  0
 34 74  1  0  0  0  0
M  END
$$$$
