41
0 1 C17H18O5S
C                     3.210971308623    -1.717969385227     2.181146979169
C                     3.124598993714    -0.332943272321     2.010262200868
C                     2.419709384550    -2.560628889452     1.392901423407
C                     2.250570965128     0.205662092916     1.061022659839
C                     1.547441028944    -2.018069813728     0.445910038840
C                    -5.651643561531    -1.344652458241    -0.378014147329
C                    -5.303935133760     0.400334551027     1.286651688435
C                    -4.470888525158    -0.969434636755    -1.018624844134
C                    -4.127763565797     0.774543093987     0.645388045162
C                     1.449782761159    -0.628785020217     0.271175946131
C                    -6.065230085774    -0.662733669778     0.776231888970
C                    -3.714081636195     0.081883278172    -0.498565039297
C                     2.244921352808     0.113534388454    -2.573122509391
C                     4.123374813433    -0.183134532215    -3.973964226261
C                     0.887818069189    -0.436856060187    -2.190488306340
C                    -0.941241614876    -0.436482027151    -0.404249033608
C                     0.500243748163    -0.031708446633    -0.757134862415
O                     2.737380449110     1.135148459399    -2.133505149601
O                    -2.241126490736     0.064414635730    -2.699224062833
O                    -1.919427276332     1.967188012019    -1.011510860886
O                    -7.211147375495    -0.984467307160     1.448029522975
O                     2.845213080122    -0.662912103042    -3.505644760240
S                    -2.186181338314     0.548590584654    -1.305665115574
H                     3.891049809251    -2.137875957566     2.917833365226
H                     3.742437554694     0.329374046120     2.611341460289
H                     2.483303388137    -3.639053049729     1.514792895879
H                     2.201461690112     1.281340220352     0.915677275500
H                     0.944142447926    -2.687992191868    -0.163342277932
H                    -6.253533070638    -2.157817079981    -0.779541289161
H                    -5.654881686843     0.921837152237     2.171750236562
H                    -4.147060388500    -1.470319795323    -1.925802554652
H                    -3.539917081042     1.611062406867     1.011299946725
H                     4.455403503489    -0.913592534252    -4.711585827202
H                     4.831993783114    -0.121404460101    -3.144823924451
H                     4.016118366444     0.804087454542    -4.429449980733
H                     0.889273560523    -1.522490069455    -2.316621864419
H                     0.163019225828    -0.041999636313    -2.910283980261
H                    -1.159311082430    -1.483648980786    -0.629624252939
H                    -1.135959190637    -0.253238711977     0.655344233916
H                     0.567353314089     1.056492008606    -0.686549141975
H                    -7.657005062834    -1.719267356381     0.996727565241
