
  -OEChem-05262117483D

 35 35  0     0  0  0  0  0  0999 V2000
   -0.2082    0.0955   -0.1853 C   0  0  0  0  0  0  0  0  0  0  0  0
   -1.0640    0.5589   -0.9131 C   0  0  0  0  0  0  0  0  0  0  0  0
    1.9491   -1.0546    0.1390 C   0  0  0  0  0  0  0  0  0  0  0  0
    0.6611   -0.4018    2.0673 C   0  0  0  0  0  0  0  0  0  0  0  0
    0.8008   -0.4482    0.6726 C   0  0  0  0  0  0  0  0  0  0  0  0
    2.9418   -1.5953    0.9604 C   0  0  0  0  0  0  0  0  0  0  0  0
    1.6381   -0.9276    2.9163 C   0  0  0  0  0  0  0  0  0  0  0  0
    2.7937   -1.5243    2.3649 C   0  0  0  0  0  0  0  0  0  0  0  0
    4.5821   -1.1315    4.1683 C   0  0  0  0  0  0  0  0  0  0  0  0
   -2.0963    1.1165   -1.7901 C   0  0  0  0  0  0  0  0  0  0  0  0
    5.3533   -1.2624    0.1948 C   0  0  0  0  0  0  0  0  0  0  0  0
    1.7241    0.6244    4.9282 C   0  0  0  0  0  0  0  0  0  0  0  0
    3.8405   -2.1225    3.2912 C   0  0  0  0  0  0  0  0  0  0  0  0
    4.1493   -2.2174    0.2827 C   0  0  0  0  0  0  0  0  0  0  0  0
    1.4119   -0.7927    4.4111 C   0  0  0  0  0  0  0  0  0  0  0  0
    4.7539   -1.2446    5.3660 O   0  0  0  0  0  0  0  0  0  0  0  0
    5.0837   -0.0825    3.4625 O   0  0  0  0  0  0  0  0  0  0  0  0
    2.0592   -1.1088   -0.9408 H   0  0  0  0  0  0  0  0  0  0  0  0
   -0.2304    0.0520    2.4927 H   0  0  0  0  0  0  0  0  0  0  0  0
   -2.4649    2.0727   -1.4032 H   0  0  0  0  0  0  0  0  0  0  0  0
   -1.7031    1.2884   -2.7976 H   0  0  0  0  0  0  0  0  0  0  0  0
   -2.9507    0.4356   -1.8734 H   0  0  0  0  0  0  0  0  0  0  0  0
    5.0850   -0.3623   -0.3680 H   0  0  0  0  0  0  0  0  0  0  0  0
    6.1945   -1.7458   -0.3142 H   0  0  0  0  0  0  0  0  0  0  0  0
    5.6846   -0.9397    1.1849 H   0  0  0  0  0  0  0  0  0  0  0  0
    2.7619    0.9021    4.7249 H   0  0  0  0  0  0  0  0  0  0  0  0
    1.5626    0.6857    6.0093 H   0  0  0  0  0  0  0  0  0  0  0  0
    1.0828    1.3657    4.4410 H   0  0  0  0  0  0  0  0  0  0  0  0
    4.6083   -2.6422    2.7140 H   0  0  0  0  0  0  0  0  0  0  0  0
    3.4025   -2.8591    3.9676 H   0  0  0  0  0  0  0  0  0  0  0  0
    4.4478   -3.1436    0.7858 H   0  0  0  0  0  0  0  0  0  0  0  0
    3.8600   -2.5150   -0.7303 H   0  0  0  0  0  0  0  0  0  0  0  0
    0.3624   -1.0217    4.6283 H   0  0  0  0  0  0  0  0  0  0  0  0
    2.0050   -1.5167    4.9740 H   0  0  0  0  0  0  0  0  0  0  0  0
    5.5598    0.4755    4.1074 H   0  0  0  0  0  0  0  0  0  0  0  0
  1  2  3  0  0  0  0
  1  5  1  0  0  0  0
  2 10  1  0  0  0  0
  3  5  1  0  0  0  0
  3  6  2  0  0  0  0
  3 18  1  0  0  0  0
  4  5  2  0  0  0  0
  4  7  1  0  0  0  0
  4 19  1  0  0  0  0
  6  8  1  0  0  0  0
  6 14  1  0  0  0  0
  7  8  2  0  0  0  0
  7 15  1  0  0  0  0
  8 13  1  0  0  0  0
  9 13  1  0  0  0  0
  9 16  2  0  0  0  0
  9 17  1  0  0  0  0
 10 20  1  0  0  0  0
 10 21  1  0  0  0  0
 10 22  1  0  0  0  0
 11 14  1  0  0  0  0
 11 23  1  0  0  0  0
 11 24  1  0  0  0  0
 11 25  1  0  0  0  0
 12 15  1  0  0  0  0
 12 26  1  0  0  0  0
 12 27  1  0  0  0  0
 12 28  1  0  0  0  0
 13 29  1  0  0  0  0
 13 30  1  0  0  0  0
 14 31  1  0  0  0  0
 14 32  1  0  0  0  0
 15 33  1  0  0  0  0
 15 34  1  0  0  0  0
 17 35  1  0  0  0  0
M  END
$$$$
