
  -OEChem-05262117483D

 35 36  0     1  0  0  0  0  0999 V2000
   -2.2147   -3.2650    5.5222 C   0  0  0  0  0  0  0  0  0  0  0  0
   -1.9681   -4.4122    4.7777 C   0  0  0  0  0  0  0  0  0  0  0  0
   -2.4394   -2.0239    4.9077 C   0  0  0  0  0  0  0  0  0  0  0  0
   -2.1085   -3.1018    2.7063 C   0  0  0  0  0  0  0  0  0  0  0  0
   -1.9231   -4.3304    3.3802 C   0  0  0  0  0  0  0  0  0  0  0  0
   -2.3592   -1.9767    3.5077 C   0  0  0  0  0  0  0  0  0  0  0  0
   -2.7797   -0.8106    5.7936 C   0  0  0  0  0  0  0  0  0  0  0  0
    1.2275   -2.7631   -0.5667 C   0  0  0  0  0  0  0  0  0  0  0  0
    1.2289   -1.3065   -1.0289 C   0  0  0  0  0  0  0  0  0  0  0  0
   -0.8752   -2.1630   -1.5526 C   0  0  0  0  0  0  0  0  0  0  0  0
   -0.2713   -3.0487   -0.4386 C   0  0  2  0  0  0  0  0  0  0  0  0
   -3.4122   -6.3046    2.0212 C   0  0  0  0  0  0  0  0  0  0  0  0
   -2.0098   -2.9743    1.2037 C   0  0  0  0  0  0  0  0  0  0  0  0
   -1.7935   -0.2931    6.3679 O   0  5  0  0  0  0  0  0  0  0  0  0
   -4.0075   -0.5558    5.8374 O   0  0  0  0  0  0  0  0  0  0  0  0
   -0.9214   -5.7577    1.2926 O   0  0  0  0  0  0  0  0  0  0  0  0
   -1.3270   -6.9195    3.5180 O   0  0  0  0  0  0  0  0  0  0  0  0
    0.1317   -1.2159   -1.9526 O   0  0  0  0  0  0  0  0  0  0  0  0
   -0.6624   -2.6374    0.8677 O   0  0  0  0  0  0  0  0  0  0  0  0
   -1.7179   -5.8971    2.5282 S   0  0  0  0  0  0  0  0  0  0  0  0
   -2.5702   -0.4041    2.7304 Cl  0  0  0  0  0  0  0  0  0  0  0  0
   -2.2371   -3.3150    6.6076 H   0  0  0  0  0  0  0  0  0  0  0  0
   -1.8014   -5.3697    5.2597 H   0  0  0  0  0  0  0  0  0  0  0  0
    1.6664   -3.4072   -1.3361 H   0  0  0  0  0  0  0  0  0  0  0  0
    1.7373   -2.9335    0.3834 H   0  0  0  0  0  0  0  0  0  0  0  0
    1.0698   -0.6288   -0.1795 H   0  0  0  0  0  0  0  0  0  0  0  0
    2.1347   -1.0070   -1.5645 H   0  0  0  0  0  0  0  0  0  0  0  0
   -1.1549   -2.7510   -2.4357 H   0  0  0  0  0  0  0  0  0  0  0  0
   -1.7609   -1.6290   -1.1889 H   0  0  0  0  0  0  0  0  0  0  0  0
   -0.5128   -4.1097   -0.5678 H   0  0  0  0  0  0  0  0  0  0  0  0
   -3.3585   -7.2651    1.5037 H   0  0  0  0  0  0  0  0  0  0  0  0
   -4.0292   -6.3779    2.9177 H   0  0  0  0  0  0  0  0  0  0  0  0
   -3.7884   -5.5274    1.3547 H   0  0  0  0  0  0  0  0  0  0  0  0
   -2.2796   -3.9114    0.7098 H   0  0  0  0  0  0  0  0  0  0  0  0
   -2.6953   -2.1952    0.8547 H   0  0  0  0  0  0  0  0  0  0  0  0
  1  2  1  0  0  0  0
  1  3  2  0  0  0  0
  1 22  1  0  0  0  0
  2  5  2  0  0  0  0
  2 23  1  0  0  0  0
  3  6  1  0  0  0  0
  3  7  1  0  0  0  0
  4  5  1  0  0  0  0
  4  6  2  0  0  0  0
  4 13  1  0  0  0  0
  5 20  1  0  0  0  0
  6 21  1  0  0  0  0
  7 14  1  0  0  0  0
  7 15  2  0  0  0  0
  8  9  1  0  0  0  0
  8 11  1  0  0  0  0
  8 24  1  0  0  0  0
  8 25  1  0  0  0  0
  9 18  1  0  0  0  0
  9 26  1  0  0  0  0
  9 27  1  0  0  0  0
 10 11  1  0  0  0  0
 10 18  1  0  0  0  0
 10 28  1  0  0  0  0
 10 29  1  0  0  0  0
 11 19  1  0  0  0  0
 11 30  1  0  0  0  0
 12 20  1  0  0  0  0
 12 31  1  0  0  0  0
 12 32  1  0  0  0  0
 12 33  1  0  0  0  0
 13 19  1  0  0  0  0
 13 34  1  0  0  0  0
 13 35  1  0  0  0  0
 16 20  2  0  0  0  0
 17 20  2  0  0  0  0
M  CHG  1  14  -1
M  END
$$$$
