
  -OEChem-05262117483D

 40 41  0     1  0  0  0  0  0999 V2000
    6.8421   -9.4030   -2.9824 C   0  0  0  0  0  0  0  0  0  0  0  0
    7.0601   -8.4104   -2.0213 C   0  0  0  0  0  0  0  0  0  0  0  0
    5.5823   -9.5260   -3.5769 C   0  0  0  0  0  0  0  0  0  0  0  0
    6.0268   -7.5445   -1.6521 C   0  0  0  0  0  0  0  0  0  0  0  0
    4.5475   -8.6620   -3.2082 C   0  0  0  0  0  0  0  0  0  0  0  0
    4.7567   -7.6645   -2.2438 C   0  0  0  0  0  0  0  0  0  0  0  0
    3.0170   -7.0426   -0.4249 C   0  0  0  0  0  0  0  0  0  0  0  0
    3.9595   -5.2839   -1.8896 C   0  0  0  0  0  0  0  0  0  0  0  0
    1.0765   -0.4796   -0.2798 C   0  0  0  0  0  0  0  0  0  0  0  0
    1.1173   -0.2028   -1.7891 C   0  0  0  0  0  0  0  0  0  0  0  0
    0.9928   -1.9851    0.0055 C   0  0  0  0  0  0  0  0  0  0  0  0
    2.2569   -0.9736   -2.4709 C   0  0  0  0  0  0  0  0  0  0  0  0
    2.1332   -2.7560   -0.6736 C   0  0  0  0  0  0  0  0  0  0  0  0
    2.1699   -2.4840   -2.1868 C   0  0  0  0  0  0  0  0  0  0  0  0
    3.3249   -3.1961   -2.8836 C   0  0  0  0  0  0  0  0  0  0  0  0
    3.6011   -6.7711   -1.8334 C   0  0  1  0  0  0  0  0  0  0  0  0
    2.1152   -6.3743    0.0254 O   0  0  0  0  0  0  0  0  0  0  0  0
    4.8363   -4.7753   -1.2191 O   0  0  0  0  0  0  0  0  0  0  0  0
    3.5277   -8.0864    0.2627 O   0  0  0  0  0  0  0  0  0  0  0  0
    3.1796   -4.6429   -2.7738 O   0  0  0  0  0  0  0  0  0  0  0  0
    7.6477  -10.0745   -3.2668 H   0  0  0  0  0  0  0  0  0  0  0  0
    8.0377   -8.3065   -1.5581 H   0  0  0  0  0  0  0  0  0  0  0  0
    5.4044  -10.2926   -4.3263 H   0  0  0  0  0  0  0  0  0  0  0  0
    6.2033   -6.7622   -0.9204 H   0  0  0  0  0  0  0  0  0  0  0  0
    3.5692   -8.7629   -3.6723 H   0  0  0  0  0  0  0  0  0  0  0  0
    0.2285    0.0441    0.1773 H   0  0  0  0  0  0  0  0  0  0  0  0
    1.9854   -0.0734    0.1857 H   0  0  0  0  0  0  0  0  0  0  0  0
    0.1608   -0.5037   -2.2383 H   0  0  0  0  0  0  0  0  0  0  0  0
    1.2288    0.8713   -1.9786 H   0  0  0  0  0  0  0  0  0  0  0  0
    1.0136   -2.1711    1.0852 H   0  0  0  0  0  0  0  0  0  0  0  0
    0.0301   -2.3701   -0.3582 H   0  0  0  0  0  0  0  0  0  0  0  0
    2.2408   -0.7899   -3.5529 H   0  0  0  0  0  0  0  0  0  0  0  0
    3.2202   -0.5940   -2.1009 H   0  0  0  0  0  0  0  0  0  0  0  0
    3.0938   -2.4537   -0.2346 H   0  0  0  0  0  0  0  0  0  0  0  0
    2.0210   -3.8266   -0.4801 H   0  0  0  0  0  0  0  0  0  0  0  0
    1.2354   -2.8611   -2.6267 H   0  0  0  0  0  0  0  0  0  0  0  0
    4.2900   -2.9053   -2.4645 H   0  0  0  0  0  0  0  0  0  0  0  0
    3.3184   -2.9979   -3.9586 H   0  0  0  0  0  0  0  0  0  0  0  0
    2.7627   -6.9324   -2.5142 H   0  0  0  0  0  0  0  0  0  0  0  0
    4.2628   -8.4821   -0.2444 H   0  0  0  0  0  0  0  0  0  0  0  0
  1  2  1  0  0  0  0
  1  3  2  0  0  0  0
  1 21  1  0  0  0  0
  2  4  2  0  0  0  0
  2 22  1  0  0  0  0
  3  5  1  0  0  0  0
  3 23  1  0  0  0  0
  4  6  1  0  0  0  0
  4 24  1  0  0  0  0
  5  6  2  0  0  0  0
  5 25  1  0  0  0  0
  6 16  1  0  0  0  0
  7 16  1  0  0  0  0
  7 17  2  0  0  0  0
  7 19  1  0  0  0  0
  8 16  1  0  0  0  0
  8 18  2  0  0  0  0
  8 20  1  0  0  0  0
  9 10  1  0  0  0  0
  9 11  1  0  0  0  0
  9 26  1  0  0  0  0
  9 27  1  0  0  0  0
 10 12  1  0  0  0  0
 10 28  1  0  0  0  0
 10 29  1  0  0  0  0
 11 13  1  0  0  0  0
 11 30  1  0  0  0  0
 11 31  1  0  0  0  0
 12 14  1  0  0  0  0
 12 32  1  0  0  0  0
 12 33  1  0  0  0  0
 13 14  1  0  0  0  0
 13 34  1  0  0  0  0
 13 35  1  0  0  0  0
 14 15  1  0  0  0  0
 14 36  1  0  0  0  0
 15 20  1  0  0  0  0
 15 37  1  0  0  0  0
 15 38  1  0  0  0  0
 16 39  1  0  0  0  0
 19 40  1  0  0  0  0
M  END
$$$$
