
  -OEChem-05262117483D

 40 43  0     1  0  0  0  0  0999 V2000
    2.2974    3.5980   -2.7078 C   0  0  0  0  0  0  0  0  0  0  0  0
    1.4865    2.4699   -2.7647 C   0  0  0  0  0  0  0  0  0  0  0  0
    3.0502    1.3141   -1.3229 C   0  0  0  0  0  0  0  0  0  0  0  0
    5.4378    6.5756   -2.5014 C   0  0  0  0  0  0  0  0  0  0  0  0
    4.4423    5.7406   -2.9473 C   0  0  0  0  0  0  0  0  0  0  0  0
    3.5012    3.5994   -1.9948 C   0  0  0  0  0  0  0  0  0  0  0  0
    1.8671    1.3035   -2.0762 C   0  0  0  0  0  0  0  0  0  0  0  0
    3.8716    2.4459   -1.2793 C   0  0  0  0  0  0  0  0  0  0  0  0
    5.2977    5.0117   -1.0335 C   0  0  0  0  0  0  0  0  0  0  0  0
    0.0650   -0.1449   -3.0027 C   0  0  0  0  0  0  0  0  0  0  0  0
   -3.1802   -1.3873   -1.1303 C   0  0  0  0  0  0  0  0  0  0  0  0
    5.4588    4.1283    0.1543 C   0  0  0  0  0  0  0  0  0  0  0  0
    1.3852   -1.0311   -1.2782 C   0  0  0  0  0  0  0  0  0  0  0  0
    0.1409   -1.9010   -1.5120 C   0  0  1  0  0  0  0  0  0  0  0  0
   -4.4110   -2.0365   -1.7337 C   0  0  0  0  0  0  0  0  0  0  0  0
   -0.8764   -1.7668   -0.3690 C   0  0  0  0  0  0  0  0  0  0  0  0
    5.9665    6.1131   -1.3089 N   0  0  0  0  0  0  0  0  0  0  0  0
    4.3505    4.7302   -1.9958 N   0  0  0  0  0  0  0  0  0  0  0  0
    1.0687    0.1404   -2.0838 N   0  0  0  0  0  0  0  0  0  0  0  0
   -2.1923   -2.2604   -0.7186 N   0  0  0  0  0  0  0  0  0  0  0  0
   -0.3455    0.5366   -3.9124 O   0  0  0  0  0  0  0  0  0  0  0  0
   -3.0705   -0.1715   -1.0098 O   0  0  0  0  0  0  0  0  0  0  0  0
   -0.4198   -1.4006   -2.7397 O   0  0  0  0  0  0  0  0  0  0  0  0
    5.3931    2.3645   -0.3599 S   0  0  0  0  0  0  0  0  0  0  0  0
    1.9800    4.4994   -3.2227 H   0  0  0  0  0  0  0  0  0  0  0  0
    0.5664    2.4892   -3.3315 H   0  0  0  0  0  0  0  0  0  0  0  0
    3.3551    0.4431   -0.7542 H   0  0  0  0  0  0  0  0  0  0  0  0
    5.8122    7.4744   -2.9736 H   0  0  0  0  0  0  0  0  0  0  0  0
    3.8403    5.7449   -3.8430 H   0  0  0  0  0  0  0  0  0  0  0  0
    6.4359    4.3032    0.6060 H   0  0  0  0  0  0  0  0  0  0  0  0
    4.6820    4.3048    0.9056 H   0  0  0  0  0  0  0  0  0  0  0  0
    1.5016   -0.7688   -0.2220 H   0  0  0  0  0  0  0  0  0  0  0  0
    2.3071   -1.5154   -1.6238 H   0  0  0  0  0  0  0  0  0  0  0  0
    0.3964   -2.9493   -1.6862 H   0  0  0  0  0  0  0  0  0  0  0  0
   -5.2991   -1.5150   -1.3722 H   0  0  0  0  0  0  0  0  0  0  0  0
   -4.3678   -1.9112   -2.8202 H   0  0  0  0  0  0  0  0  0  0  0  0
   -4.4963   -3.1032   -1.5060 H   0  0  0  0  0  0  0  0  0  0  0  0
   -0.9998   -0.7132   -0.1089 H   0  0  0  0  0  0  0  0  0  0  0  0
   -0.4879   -2.2959    0.5099 H   0  0  0  0  0  0  0  0  0  0  0  0
   -2.2883   -3.2351   -0.9723 H   0  0  0  0  0  0  0  0  0  0  0  0
  1  2  1  0  0  0  0
  1  6  2  0  0  0  0
  1 25  1  0  0  0  0
  2  7  2  0  0  0  0
  2 26  1  0  0  0  0
  3  7  1  0  0  0  0
  3  8  2  0  0  0  0
  3 27  1  0  0  0  0
  4  5  2  0  0  0  0
  4 17  1  0  0  0  0
  4 28  1  0  0  0  0
  5 18  1  0  0  0  0
  5 29  1  0  0  0  0
  6  8  1  0  0  0  0
  6 18  1  0  0  0  0
  7 19  1  0  0  0  0
  8 24  1  0  0  0  0
  9 12  1  0  0  0  0
  9 17  2  0  0  0  0
  9 18  1  0  0  0  0
 10 19  1  0  0  0  0
 10 21  2  0  0  0  0
 10 23  1  0  0  0  0
 11 15  1  0  0  0  0
 11 20  1  0  0  0  0
 11 22  2  0  0  0  0
 12 24  1  0  0  0  0
 12 30  1  0  0  0  0
 12 31  1  0  0  0  0
 13 14  1  0  0  0  0
 13 19  1  0  0  0  0
 13 32  1  0  0  0  0
 13 33  1  0  0  0  0
 14 16  1  0  0  0  0
 14 23  1  0  0  0  0
 14 34  1  0  0  0  0
 15 35  1  0  0  0  0
 15 36  1  0  0  0  0
 15 37  1  0  0  0  0
 16 20  1  0  0  0  0
 16 38  1  0  0  0  0
 16 39  1  0  0  0  0
 20 40  1  0  0  0  0
M  END
$$$$
