
  -OEChem-05262117483D

 36 38  0     1  0  0  0  0  0999 V2000
    0.3069   -3.1368   -0.9457 C   0  0  0  0  0  0  0  0  0  0  0  0
    0.4310   -3.8806   -2.1186 C   0  0  0  0  0  0  0  0  0  0  0  0
    2.4239   -2.6091   -2.6652 C   0  0  0  0  0  0  0  0  0  0  0  0
    2.4890   -4.7810    2.4939 C   0  0  0  0  0  0  0  0  0  0  0  0
    0.4110   -4.6275    2.2177 C   0  0  0  0  0  0  0  0  0  0  0  0
    1.2135   -2.1293   -0.5771 C   0  0  0  0  0  0  0  0  0  0  0  0
    1.5007   -3.6026   -2.9600 C   0  0  0  0  0  0  0  0  0  0  0  0
    2.2565   -1.8892   -1.4842 C   0  0  0  0  0  0  0  0  0  0  0  0
    1.0028    1.1508   -0.1532 C   0  0  0  0  0  0  0  0  0  0  0  0
    0.4975    1.2117    1.2652 C   0  0  0  0  0  0  0  0  0  0  0  0
    0.2332   -0.0229    0.4232 C   0  0  0  0  0  0  0  0  0  0  0  0
   -2.4858   -0.0919    1.2655 C   0  0  0  0  0  0  0  0  0  0  0  0
    0.3046   -2.1198    1.8146 C   0  0  0  0  0  0  0  0  0  0  0  0
    1.0376   -1.3141    0.7134 C   0  0  1  0  0  0  0  0  0  0  0  0
    1.3520   -5.5305    2.4663 N   0  0  0  0  0  0  0  0  0  0  0  0
    2.3015   -3.4813    2.2855 N   0  0  0  0  0  0  0  0  0  0  0  0
    0.9516   -3.3937    2.1089 N   0  0  0  0  0  0  0  0  0  0  0  0
    2.2904   -0.8990    1.2450 O   0  0  0  0  0  0  0  0  0  0  0  0
    1.6495   -4.3117   -4.1047 F   0  0  0  0  0  0  0  0  0  0  0  0
    3.1696   -0.9161   -1.2611 F   0  0  0  0  0  0  0  0  0  0  0  0
   -1.4414   -0.2573   -0.2273 S   0  0  0  0  0  0  0  0  0  0  0  0
   -0.5439   -3.3456   -0.3102 H   0  0  0  0  0  0  0  0  0  0  0  0
   -0.2821   -4.6557   -2.3789 H   0  0  0  0  0  0  0  0  0  0  0  0
    3.2512   -2.3875   -3.3305 H   0  0  0  0  0  0  0  0  0  0  0  0
    3.4745   -5.1921    2.6697 H   0  0  0  0  0  0  0  0  0  0  0  0
   -0.6495   -4.8182    2.1131 H   0  0  0  0  0  0  0  0  0  0  0  0
    0.4951    1.7445   -0.9055 H   0  0  0  0  0  0  0  0  0  0  0  0
    2.0670    1.0093   -0.2953 H   0  0  0  0  0  0  0  0  0  0  0  0
    1.2326    1.1085    2.0556 H   0  0  0  0  0  0  0  0  0  0  0  0
   -0.3426    1.8622    1.4854 H   0  0  0  0  0  0  0  0  0  0  0  0
   -3.5203   -0.1390    0.9152 H   0  0  0  0  0  0  0  0  0  0  0  0
   -2.3268    0.8710    1.7557 H   0  0  0  0  0  0  0  0  0  0  0  0
   -2.3248   -0.8955    1.9882 H   0  0  0  0  0  0  0  0  0  0  0  0
    0.2982   -1.4993    2.7142 H   0  0  0  0  0  0  0  0  0  0  0  0
   -0.7242   -2.3444    1.5378 H   0  0  0  0  0  0  0  0  0  0  0  0
    2.7420   -1.7019    1.5801 H   0  0  0  0  0  0  0  0  0  0  0  0
  1  2  1  0  0  0  0
  1  6  2  0  0  0  0
  1 22  1  0  0  0  0
  2  7  2  0  0  0  0
  2 23  1  0  0  0  0
  3  7  1  0  0  0  0
  3  8  2  0  0  0  0
  3 24  1  0  0  0  0
  4 15  1  0  0  0  0
  4 16  2  0  0  0  0
  4 25  1  0  0  0  0
  5 15  2  0  0  0  0
  5 17  1  0  0  0  0
  5 26  1  0  0  0  0
  6  8  1  0  0  0  0
  6 14  1  0  0  0  0
  7 19  1  0  0  0  0
  8 20  1  0  0  0  0
  9 10  1  0  0  0  0
  9 11  1  0  0  0  0
  9 27  1  0  0  0  0
  9 28  1  0  0  0  0
 10 11  1  0  0  0  0
 10 29  1  0  0  0  0
 10 30  1  0  0  0  0
 11 14  1  0  0  0  0
 11 21  1  0  0  0  0
 12 21  1  0  0  0  0
 12 31  1  0  0  0  0
 12 32  1  0  0  0  0
 12 33  1  0  0  0  0
 13 14  1  0  0  0  0
 13 17  1  0  0  0  0
 13 34  1  0  0  0  0
 13 35  1  0  0  0  0
 14 18  1  0  0  0  0
 16 17  1  0  0  0  0
 18 36  1  0  0  0  0
M  END
$$$$
