39
0 1 C16H18O4S
C                     2.854828341167    -1.518940946696     1.898896100159
C                     1.680119440181    -1.183284058931    -0.186086690162
C                    -0.725278833549     3.962135237023     1.941785717288
C                     0.566212074642     3.639877587200     3.958794403706
C                     1.747558678218    -1.048852885769     2.604625661725
C                     0.563464189681    -0.709482660973     0.505532429874
C                    -1.001424695624     2.594223043200     1.885815971950
C                     0.298334352478     2.271963461880     3.917793980970
C                     2.837416415937    -1.588649317780     0.496050690823
C                     0.061274588122     4.501857420180     2.970582093551
C                     0.613717683412    -0.641097666841     1.897971691073
C                    -0.479492989906     1.761518896921     2.875570272747
C                     4.051245207898    -2.065246792868    -0.268334550266
C                     0.319414100207     5.989849866344     3.037686690504
C                     5.165222472455    -1.018542535910    -0.345135007244
C                    -0.515994109868     6.699819137513     4.106132759381
O                    -1.995505284707    -0.198936250569     1.954858966193
O                    -0.733526684807    -0.532409472699     4.171502840439
O                     5.717389189072    -0.853624421163     0.965215490979
O                    -0.032824222073     6.299442596274     5.392775742851
S                    -0.804872081467    -0.004828689130     2.799241286204
H                     3.745284972596    -1.831283302580     2.434957366579
H                     1.645570613703    -1.248795700186    -1.271385936636
H                    -1.131595478938     4.618728842459     1.175467878692
H                     1.153992020654     4.052514968615     4.772368386353
H                     1.748453352837    -1.013217505016     3.689684312488
H                    -0.341228441155    -0.418002433982    -0.018979607424
H                    -1.623903473979     2.176427131209     1.100683248212
H                     0.667987007744     1.606589689955     4.692025802338
H                     4.467747392736    -2.965406200670     0.197262447176
H                     3.765946368697    -2.332515352685    -1.291316343213
H                     1.375693178486     6.186698682153     3.253117601108
H                     0.095488646513     6.450355369378     2.069589136390
H                     5.938345032554    -1.365064754754    -1.046430000284
H                     4.757458119928    -0.069511437785    -0.721324271087
H                    -0.414246926819     7.787725121509     3.980805635620
H                    -1.575712088586     6.435453569788     3.984537626147
H                     6.315999514008    -0.091774785597     0.954268089808
H                    -0.671107803885     6.581602456804     6.064901916527
