29
0 1 C13H12O4
C                    -0.520071166271    -1.739454345112     0.466907795851
C                     3.815608094138    -4.260581716861    -0.240275600725
C                    -0.086547678945    -2.989378155859     0.855077700536
C                     3.380972863701    -3.012371614760    -0.624673567295
C                     0.314236588043    -0.881557310108    -0.289361036308
C                     2.979749215583    -5.128554952719     0.507922379370
C                     2.075974532579    -2.577260802181    -0.268128769124
C                     1.215911204828    -3.428671590403     0.492817582111
C                     1.584242245301    -1.291744267656    -0.646833513880
C                     1.712330414661    -4.715801580952     0.865683650113
C                     1.425137195131    -7.857033095948     1.294065720453
C                     0.309958195587    -6.990527072699     3.365228513449
C                     1.302196374834    -6.661791881059     2.252132667621
O                     2.094969978277    -8.829608314780     1.556430585563
O                     2.441484259462    -0.505247118690    -1.376432650721
O                     0.688252060697    -7.768926201644     0.164666612695
O                     0.813184598180    -5.495763428409     1.576406850637
H                    -1.514114628281    -1.397833048088     0.742452041647
H                     4.809621906348    -4.602210311239    -0.514689100657
H                    -0.724390249761    -3.642286116107     1.439091158959
H                     4.019127945411    -2.351915327901    -1.200567828023
H                    -0.046714996851     0.101890362527    -0.586172480275
H                     3.352290506364    -6.111987893061     0.771999556098
H                    -0.689985629364    -7.158660616349     2.954701247329
H                     0.263493975816    -6.158877888816     4.072675493194
H                     0.631983002146    -7.892850481911     3.890065566098
H                     2.291894704557    -6.469347989269     2.673892651389
H                     2.003093273150     0.337561766971    -1.574611278277
H                     0.268065569489    -6.885923364608     0.146083549505
