49
0 1 C19ClH21O7S
C                    -1.979733613035    -0.735113544384     5.237971961467
C                    -1.610137712026     0.301860482488     4.387928773536
C                    -2.460371356126    -1.939267632823     4.713074720202
C                    -2.221363949754    -1.050357638210     2.432651556260
C                    -1.730757682787     0.136582945287     3.005792036994
C                    -2.581519387535    -2.075247644179     3.325386946470
C                    -0.853462831610    -4.321476514498     6.606278175350
C                    -2.909801391812    -5.596899115441     5.692405272427
C                    -2.788706854928    -3.028367467065     5.700944721495
C                    -0.144423991563    -5.644252352925     6.812277602862
C                    -2.166595780649    -6.900223643170     5.925563323250
C                    -1.146439762257    -6.781507196920     7.067703282540
C                    -2.154806193947    -3.467789825053    -1.273821972174
C                    -1.440380192310    -4.764596588206    -0.891016818425
C                     0.205806807008    -3.117275265786    -1.037381440406
C                    -2.016764391759    -4.342737203790     5.591595600892
C                    -1.139329107533    -2.413007640933    -0.805122175909
C                    -2.793450923329     2.322559285641     1.546068978272
C                    -2.320651633547    -1.293309557970     0.943363366778
O                    -0.529545861974    -3.294302071678     7.171986393910
O                    -4.112692254872    -5.536613480149     5.548579764414
O                    -3.532886485539    -2.815872579796     6.635692157223
O                    -0.544906251826     2.510224553757     2.928327250945
O                    -0.537638854812     1.125280706740     0.786184368193
O                    -0.058174228804    -4.523268147086    -1.182067935616
O                    -1.243978451867    -2.153752295198     0.599578740398
S                    -1.212721530981     1.575164718262     2.011942613684
Cl                   -3.264500774421    -3.569421446383     2.693148759198
H                    -1.882065555472    -0.637715859333     6.314359360994
H                    -1.211573158224     1.231173575185     4.780349257124
H                     0.431269107740    -5.863080766434     5.901930925201
H                     0.562951189418    -5.524632426548     7.635673283876
H                    -2.907124025006    -7.680113003933     6.115223504782
H                    -1.642081875355    -7.156102007493     4.993860916070
H                    -1.671224907914    -6.603027011111     8.013274011509
H                    -0.606114068367    -7.726218256343     7.177610309385
H                    -2.278350969486    -3.405619953760    -2.360509001758
H                    -3.135764008430    -3.358336133741    -0.805085488053
H                    -1.575900549757    -4.977962210117     0.178793670389
H                    -1.757653908285    -5.634357596353    -1.472303479599
H                     0.694147115991    -2.765273342842    -1.952129295512
H                     0.867081207126    -2.936310338968    -0.183723723413
H                    -1.523012573741    -4.428972303049     4.613384697684
H                    -1.210620787415    -1.465508690752    -1.353507042922
H                    -2.545149847486     3.210953104927     0.961370542284
H                    -3.369296134622     1.618132838831     0.944678414481
H                    -3.329428219910     2.597288757285     2.455373594878
H                    -3.289866444797    -1.756151621810     0.716836366789
H                    -2.242830843529    -0.364280659894     0.374691761129
