
  -OEChem-05262117483D

 45 47  0     0  0  0  0  0  0999 V2000
   -1.3241   -6.1430    2.0840 C   0  0  0  0  0  0  0  0  0  0  0  0
    1.0460   -6.3962    2.3524 C   0  0  0  0  0  0  0  0  0  0  0  0
    0.3460   -8.9676    3.8144 C   0  0  0  0  0  0  0  0  0  0  0  0
   -1.5339   -7.7219    4.6715 C   0  0  0  0  0  0  0  0  0  0  0  0
   -1.1088   -5.1557    1.1189 C   0  0  0  0  0  0  0  0  0  0  0  0
    1.2558   -5.4122    1.3890 C   0  0  0  0  0  0  0  0  0  0  0  0
    0.1368   -9.9624    4.7712 C   0  0  0  0  0  0  0  0  0  0  0  0
   -1.7595   -8.7056    5.6361 C   0  0  0  0  0  0  0  0  0  0  0  0
   -0.2532   -6.7840    2.7234 C   0  0  0  0  0  0  0  0  0  0  0  0
   -0.4816   -7.8329    3.7456 C   0  0  0  0  0  0  0  0  0  0  0  0
    0.1852   -4.7603    0.7498 C   0  0  0  0  0  0  0  0  0  0  0  0
   -0.9165   -9.8119    5.6676 C   0  0  0  0  0  0  0  0  0  0  0  0
   -0.3728   -5.4744   -3.2717 C   0  0  0  0  0  0  0  0  0  0  0  0
    0.3739   -0.8026   -1.1672 C   0  0  0  0  0  0  0  0  0  0  0  0
    1.6906   -1.4705   -0.7566 C   0  0  0  0  0  0  0  0  0  0  0  0
   -0.5975   -1.8306   -1.7573 C   0  0  0  0  0  0  0  0  0  0  0  0
    1.4529   -2.6497    0.1988 C   0  0  0  0  0  0  0  0  0  0  0  0
   -0.8350   -3.0021   -0.7936 C   0  0  0  0  0  0  0  0  0  0  0  0
    0.4595   -3.7149   -0.3404 C   0  0  0  0  0  0  0  0  0  0  0  0
    1.1112   -4.4618   -1.5408 C   0  0  0  0  0  0  0  0  0  0  0  0
    0.2842   -5.5282   -2.0790 N   0  0  0  0  0  0  0  0  0  0  0  0
   -1.1622   -6.3162   -3.6810 O   0  0  0  0  0  0  0  0  0  0  0  0
   -1.1283  -10.7746    6.6022 F   0  0  0  0  0  0  0  0  0  0  0  0
   -2.3434   -6.4402    2.3160 H   0  0  0  0  0  0  0  0  0  0  0  0
    1.9032   -6.8512    2.8419 H   0  0  0  0  0  0  0  0  0  0  0  0
    1.1484   -9.0913    3.0926 H   0  0  0  0  0  0  0  0  0  0  0  0
   -2.1706   -6.8420    4.6567 H   0  0  0  0  0  0  0  0  0  0  0  0
   -1.9745   -4.7088    0.6440 H   0  0  0  0  0  0  0  0  0  0  0  0
    2.2800   -5.1471    1.1420 H   0  0  0  0  0  0  0  0  0  0  0  0
    0.7659  -10.8459    4.8208 H   0  0  0  0  0  0  0  0  0  0  0  0
   -2.5646   -8.6196    6.3594 H   0  0  0  0  0  0  0  0  0  0  0  0
   -0.1050   -4.5738   -3.8595 H   0  0  0  0  0  0  0  0  0  0  0  0
    0.5615    0.0043   -1.8849 H   0  0  0  0  0  0  0  0  0  0  0  0
   -0.0858   -0.3393   -0.2834 H   0  0  0  0  0  0  0  0  0  0  0  0
    2.2250   -1.8096   -1.6534 H   0  0  0  0  0  0  0  0  0  0  0  0
    2.3501   -0.7440   -0.2680 H   0  0  0  0  0  0  0  0  0  0  0  0
   -1.5598   -1.3585   -1.9849 H   0  0  0  0  0  0  0  0  0  0  0  0
   -0.2076   -2.1951   -2.7161 H   0  0  0  0  0  0  0  0  0  0  0  0
    2.4126   -3.1174    0.4424 H   0  0  0  0  0  0  0  0  0  0  0  0
    1.0499   -2.2679    1.1450 H   0  0  0  0  0  0  0  0  0  0  0  0
   -1.3431   -2.6132    0.0975 H   0  0  0  0  0  0  0  0  0  0  0  0
   -1.5190   -3.7212   -1.2552 H   0  0  0  0  0  0  0  0  0  0  0  0
    2.0751   -4.8755   -1.2250 H   0  0  0  0  0  0  0  0  0  0  0  0
    1.3218   -3.7685   -2.3573 H   0  0  0  0  0  0  0  0  0  0  0  0
    0.0369   -6.3026   -1.4701 H   0  0  0  0  0  0  0  0  0  0  0  0
  1  5  1  0  0  0  0
  1  9  2  0  0  0  0
  1 24  1  0  0  0  0
  2  6  2  0  0  0  0
  2  9  1  0  0  0  0
  2 25  1  0  0  0  0
  3  7  2  0  0  0  0
  3 10  1  0  0  0  0
  3 26  1  0  0  0  0
  4  8  1  0  0  0  0
  4 10  2  0  0  0  0
  4 27  1  0  0  0  0
  5 11  2  0  0  0  0
  5 28  1  0  0  0  0
  6 11  1  0  0  0  0
  6 29  1  0  0  0  0
  7 12  1  0  0  0  0
  7 30  1  0  0  0  0
  8 12  2  0  0  0  0
  8 31  1  0  0  0  0
  9 10  1  0  0  0  0
 11 19  1  0  0  0  0
 12 23  1  0  0  0  0
 13 21  1  0  0  0  0
 13 22  2  0  0  0  0
 13 32  1  0  0  0  0
 14 15  1  0  0  0  0
 14 16  1  0  0  0  0
 14 33  1  0  0  0  0
 14 34  1  0  0  0  0
 15 17  1  0  0  0  0
 15 35  1  0  0  0  0
 15 36  1  0  0  0  0
 16 18  1  0  0  0  0
 16 37  1  0  0  0  0
 16 38  1  0  0  0  0
 17 19  1  0  0  0  0
 17 39  1  0  0  0  0
 17 40  1  0  0  0  0
 18 19  1  0  0  0  0
 18 41  1  0  0  0  0
 18 42  1  0  0  0  0
 19 20  1  0  0  0  0
 20 21  1  0  0  0  0
 20 43  1  0  0  0  0
 20 44  1  0  0  0  0
 21 45  1  0  0  0  0
M  END
$$$$
