
  -OEChem-05262117483D

 62 65  0     0  0  0  0  0  0999 V2000
    0.3990   -4.7019    7.8958 C   0  0  0  0  0  0  0  0  0  0  0  0
    3.3515   -8.6617   -0.2662 C   0  0  0  0  0  0  0  0  0  0  0  0
    1.1611   -3.9386    7.0072 C   0  0  0  0  0  0  0  0  0  0  0  0
   -0.3226   -5.8021    7.4164 C   0  0  0  0  0  0  0  0  0  0  0  0
    2.2165   -7.8466   -0.2877 C   0  0  0  0  0  0  0  0  0  0  0  0
    4.2957   -8.5029    0.7555 C   0  0  0  0  0  0  0  0  0  0  0  0
    1.6362   -2.2430    0.4376 C   0  0  0  0  0  0  0  0  0  0  0  0
   -0.2918   -1.9534    1.8203 C   0  0  0  0  0  0  0  0  0  0  0  0
    1.2020   -4.2694    5.6479 C   0  0  0  0  0  0  0  0  0  0  0  0
   -0.2775   -6.1305    6.0596 C   0  0  0  0  0  0  0  0  0  0  0  0
    2.0255   -6.8767    0.7028 C   0  0  0  0  0  0  0  0  0  0  0  0
    4.1013   -7.5343    1.7430 C   0  0  0  0  0  0  0  0  0  0  0  0
    1.9645   -3.4135    1.1219 C   0  0  0  0  0  0  0  0  0  0  0  0
    0.0250   -3.1119    2.5268 C   0  0  0  0  0  0  0  0  0  0  0  0
    0.5031   -1.4882    0.7632 C   0  0  0  0  0  0  0  0  0  0  0  0
    0.4828   -5.3666    5.1622 C   0  0  0  0  0  0  0  0  0  0  0  0
    2.9669   -6.7099    1.7245 C   0  0  0  0  0  0  0  0  0  0  0  0
    1.1632   -3.8771    2.1869 C   0  0  0  0  0  0  0  0  0  0  0  0
   -1.5813   -2.7809   -3.9017 C   0  0  0  0  0  0  0  0  0  0  0  0
    0.5433    1.8819   -0.1562 C   0  0  0  0  0  0  0  0  0  0  0  0
    1.2368    0.5934   -0.6738 C   0  0  0  0  0  0  0  0  0  0  0  0
   -0.2943    1.0056    0.8130 C   0  0  0  0  0  0  0  0  0  0  0  0
    0.0990   -0.2595   -0.0202 C   0  0  0  0  0  0  0  0  0  0  0  0
   -2.7906   -2.8384   -4.8061 C   0  0  0  0  0  0  0  0  0  0  0  0
    0.4982   -5.7415    3.6850 C   0  0  0  0  0  0  0  0  0  0  0  0
    2.7977   -5.6446    2.8012 C   0  0  0  0  0  0  0  0  0  0  0  0
   -1.0188   -0.5962   -1.0298 C   0  0  0  0  0  0  0  0  0  0  0  0
   -0.6384   -1.7003   -2.0034 C   0  0  0  0  0  0  0  0  0  0  0  0
    1.4806   -5.0435    2.8792 N   0  0  0  0  0  0  0  0  0  0  0  0
   -0.6022   -3.4975   -3.9919 O   0  0  0  0  0  0  0  0  0  0  0  0
   -1.7295   -1.8256   -2.9544 O   0  0  0  0  0  0  0  0  0  0  0  0
    0.3674   -4.4453    8.9516 H   0  0  0  0  0  0  0  0  0  0  0  0
    3.5003   -9.4145   -1.0361 H   0  0  0  0  0  0  0  0  0  0  0  0
    1.7243   -3.0824    7.3702 H   0  0  0  0  0  0  0  0  0  0  0  0
   -0.9154   -6.4046    8.1002 H   0  0  0  0  0  0  0  0  0  0  0  0
    1.4793   -7.9600   -1.0786 H   0  0  0  0  0  0  0  0  0  0  0  0
    5.1796   -9.1354    0.7837 H   0  0  0  0  0  0  0  0  0  0  0  0
    2.2731   -1.9316   -0.3869 H   0  0  0  0  0  0  0  0  0  0  0  0
   -1.1742   -1.3889    2.1156 H   0  0  0  0  0  0  0  0  0  0  0  0
    1.7919   -3.6726    4.9585 H   0  0  0  0  0  0  0  0  0  0  0  0
   -0.8366   -6.9906    5.6942 H   0  0  0  0  0  0  0  0  0  0  0  0
    1.1440   -6.2431    0.6798 H   0  0  0  0  0  0  0  0  0  0  0  0
    4.8372   -7.4190    2.5374 H   0  0  0  0  0  0  0  0  0  0  0  0
    2.8278   -3.9846    0.7976 H   0  0  0  0  0  0  0  0  0  0  0  0
   -0.5971   -3.4026    3.3667 H   0  0  0  0  0  0  0  0  0  0  0  0
   -0.0706    2.3647   -0.9216 H   0  0  0  0  0  0  0  0  0  0  0  0
    1.1885    2.6392    0.2968 H   0  0  0  0  0  0  0  0  0  0  0  0
    1.3762    0.4976   -1.7551 H   0  0  0  0  0  0  0  0  0  0  0  0
    2.1989    0.4273   -0.1818 H   0  0  0  0  0  0  0  0  0  0  0  0
    0.1388    0.9722    1.8166 H   0  0  0  0  0  0  0  0  0  0  0  0
   -1.3637    1.2262    0.8957 H   0  0  0  0  0  0  0  0  0  0  0  0
   -3.6465   -3.2270   -4.2452 H   0  0  0  0  0  0  0  0  0  0  0  0
   -2.5823   -3.4951   -5.6506 H   0  0  0  0  0  0  0  0  0  0  0  0
   -3.0550   -1.8378   -5.1577 H   0  0  0  0  0  0  0  0  0  0  0  0
    0.6872   -6.8178    3.5933 H   0  0  0  0  0  0  0  0  0  0  0  0
   -0.4967   -5.5810    3.2557 H   0  0  0  0  0  0  0  0  0  0  0  0
    3.0272   -6.0862    3.7784 H   0  0  0  0  0  0  0  0  0  0  0  0
    3.5413   -4.8537    2.6546 H   0  0  0  0  0  0  0  0  0  0  0  0
   -1.2842    0.3025   -1.5995 H   0  0  0  0  0  0  0  0  0  0  0  0
   -1.9165   -0.9022   -0.4797 H   0  0  0  0  0  0  0  0  0  0  0  0
    0.2789   -1.4691   -2.5524 H   0  0  0  0  0  0  0  0  0  0  0  0
   -0.4940   -2.6586   -1.5012 H   0  0  0  0  0  0  0  0  0  0  0  0
  1  3  1  0  0  0  0
  1  4  2  0  0  0  0
  1 32  1  0  0  0  0
  2  5  1  0  0  0  0
  2  6  2  0  0  0  0
  2 33  1  0  0  0  0
  3  9  2  0  0  0  0
  3 34  1  0  0  0  0
  4 10  1  0  0  0  0
  4 35  1  0  0  0  0
  5 11  2  0  0  0  0
  5 36  1  0  0  0  0
  6 12  1  0  0  0  0
  6 37  1  0  0  0  0
  7 13  2  0  0  0  0
  7 15  1  0  0  0  0
  7 38  1  0  0  0  0
  8 14  1  0  0  0  0
  8 15  2  0  0  0  0
  8 39  1  0  0  0  0
  9 16  1  0  0  0  0
  9 40  1  0  0  0  0
 10 16  2  0  0  0  0
 10 41  1  0  0  0  0
 11 17  1  0  0  0  0
 11 42  1  0  0  0  0
 12 17  2  0  0  0  0
 12 43  1  0  0  0  0
 13 18  1  0  0  0  0
 13 44  1  0  0  0  0
 14 18  2  0  0  0  0
 14 45  1  0  0  0  0
 15 23  1  0  0  0  0
 16 25  1  0  0  0  0
 17 26  1  0  0  0  0
 18 29  1  0  0  0  0
 19 24  1  0  0  0  0
 19 30  2  0  0  0  0
 19 31  1  0  0  0  0
 20 21  1  0  0  0  0
 20 22  1  0  0  0  0
 20 46  1  0  0  0  0
 20 47  1  0  0  0  0
 21 23  1  0  0  0  0
 21 48  1  0  0  0  0
 21 49  1  0  0  0  0
 22 23  1  0  0  0  0
 22 50  1  0  0  0  0
 22 51  1  0  0  0  0
 23 27  1  0  0  0  0
 24 52  1  0  0  0  0
 24 53  1  0  0  0  0
 24 54  1  0  0  0  0
 25 29  1  0  0  0  0
 25 55  1  0  0  0  0
 25 56  1  0  0  0  0
 26 29  1  0  0  0  0
 26 57  1  0  0  0  0
 26 58  1  0  0  0  0
 27 28  1  0  0  0  0
 27 59  1  0  0  0  0
 27 60  1  0  0  0  0
 28 31  1  0  0  0  0
 28 61  1  0  0  0  0
 28 62  1  0  0  0  0
M  END
$$$$
