45
0 1 C20FH22NO
C                     0.638311564702    -5.468250880797    -2.738979585598
C                     0.298208408302    -4.706517468422    -4.986721929199
C                     3.053883619565    -5.860075844227    -5.532888845185
C                     2.407667697825    -7.598018308881    -3.989632433204
C                    -0.434992107547    -4.683133900081    -2.313414997605
C                    -0.771878628522    -3.923795670763    -4.555360342449
C                     4.132480529742    -6.632397325281    -5.967892880386
C                     3.480711750443    -8.385429479185    -4.410920105145
C                     1.031455618749    -5.496661590305    -4.085793727453
C                     2.173538956078    -6.325263528388    -4.539853629807
C                    -1.165836520076    -3.883336749775    -3.206756951901
C                     4.326318332515    -7.885865374481    -5.396321351873
C                    -4.474347179781    -5.574666047149    -1.474175449273
C                    -1.391949433605    -0.496359042384    -1.611099893781
C                    -1.399877545408    -0.756020722132    -3.123671684737
C                    -1.317507863420    -1.811269709345    -0.823001248196
C                    -2.517889505733    -1.733299024591    -3.508726878819
C                    -2.424542328265    -2.784616955394    -1.253066641827
C                    -2.404884215113    -3.088917812673    -2.769044545401
C                    -3.655747622331    -3.929664912793    -3.145560835468
N                    -3.685753679419    -5.252108819523    -2.537945417269
O                    -5.282869097013    -4.827884875534    -0.934963541117
F                     5.372978440217    -8.645025419248    -5.812530785295
H                     1.196011125397    -6.043035388122    -2.004069531019
H                     0.549107701916    -4.724302310123    -6.044141088028
H                     2.912229378565    -4.868758491536    -5.953590183485
H                     1.727759957390    -7.992162502564    -3.239787060951
H                    -0.687866840855    -4.691433219114    -1.259197879494
H                    -1.311208940078    -3.343039515035    -5.297134746219
H                     4.820714841836    -6.272803021723    -6.726730566272
H                     3.659599794295    -9.372735509866    -3.996179350153
H                    -4.313232192853    -6.618026306309    -1.140391234988
H                    -2.310663212608     0.038873416105    -1.334141845231
H                    -0.553606628975     0.156482596084    -1.341651817078
H                    -1.530794024081     0.185693320991    -3.669425927167
H                    -0.430953458826    -1.167744971227    -3.432064261920
H                    -0.333168119718    -2.268482391310    -0.978220640069
H                    -1.405326419645    -1.613005773131     0.251552372376
H                    -3.485972523349    -1.288974813432    -3.242135062569
H                    -2.543943053566    -1.875847585661    -4.593773453757
H                    -2.380646628839    -3.705688684546    -0.665788541022
H                    -3.400325043632    -2.342952431230    -1.019395463739
H                    -3.702388947131    -4.042854505252    -4.234480225573
H                    -4.559454782323    -3.411990189022    -2.817824698650
H                    -3.001334004749    -5.933362606861    -2.842357687519
