
  -OEChem-05262117483D

 23 24  0     0  0  0  0  0  0999 V2000
    2.0660   -0.9540   -0.0738 C   0  0  0  0  0  0  0  0  0  0  0  0
    0.8427   -0.5492    0.4691 C   0  0  0  0  0  0  0  0  0  0  0  0
    3.0458   -1.4873    0.7593 C   0  0  0  0  0  0  0  0  0  0  0  0
    0.6190   -0.6800    1.8397 C   0  0  0  0  0  0  0  0  0  0  0  0
    2.8234   -1.6310    2.1414 C   0  0  0  0  0  0  0  0  0  0  0  0
    1.5882   -1.2190    2.6986 C   0  0  0  0  0  0  0  0  0  0  0  0
    3.9349   -2.2008    2.9113 C   0  0  0  0  0  0  0  0  0  0  0  0
    5.7856   -2.9577    3.5762 C   0  0  0  0  0  0  0  0  0  0  0  0
    7.2266   -3.3454    3.5833 C   0  0  0  0  0  0  0  0  0  0  0  0
    1.2579   -1.2884    4.1567 C   0  0  0  0  0  0  0  0  0  0  0  0
    5.1635   -2.3793    2.4901 N   0  0  0  0  0  0  0  0  0  0  0  0
    5.0030   -3.1380    4.6163 N   0  0  0  0  0  0  0  0  0  0  0  0
    3.7581   -2.6338    4.1772 O   0  0  0  0  0  0  0  0  0  0  0  0
    2.0583    0.2597    5.1454 Br  0  0  0  0  0  0  0  0  0  0  0  0
    2.2556   -0.8549   -1.1389 H   0  0  0  0  0  0  0  0  0  0  0  0
    0.0693   -0.1305   -0.1691 H   0  0  0  0  0  0  0  0  0  0  0  0
    4.0017   -1.8046    0.3568 H   0  0  0  0  0  0  0  0  0  0  0  0
   -0.3260   -0.3482    2.2622 H   0  0  0  0  0  0  0  0  0  0  0  0
    7.8501   -2.4668    3.3939 H   0  0  0  0  0  0  0  0  0  0  0  0
    7.4991   -3.7810    4.5458 H   0  0  0  0  0  0  0  0  0  0  0  0
    7.4233   -4.0708    2.7883 H   0  0  0  0  0  0  0  0  0  0  0  0
    1.6471   -2.1628    4.6655 H   0  0  0  0  0  0  0  0  0  0  0  0
    0.1876   -1.1941    4.3247 H   0  0  0  0  0  0  0  0  0  0  0  0
  1  2  1  0  0  0  0
  1  3  2  0  0  0  0
  1 15  1  0  0  0  0
  2  4  2  0  0  0  0
  2 16  1  0  0  0  0
  3  5  1  0  0  0  0
  3 17  1  0  0  0  0
  4  6  1  0  0  0  0
  4 18  1  0  0  0  0
  5  6  2  0  0  0  0
  5  7  1  0  0  0  0
  6 10  1  0  0  0  0
  7 11  2  0  0  0  0
  7 13  1  0  0  0  0
  8  9  1  0  0  0  0
  8 11  1  0  0  0  0
  8 12  2  0  0  0  0
  9 19  1  0  0  0  0
  9 20  1  0  0  0  0
  9 21  1  0  0  0  0
 10 14  1  0  0  0  0
 10 22  1  0  0  0  0
 10 23  1  0  0  0  0
 12 13  1  0  0  0  0
M  END
$$$$
