19
0 1 C9ClH7N2
C                     1.622595215620    -1.273258742410     5.801279678739
C                     0.716027408296     0.396098175241     1.966010428680
C                     1.013825947681    -0.134171161939     3.220758525802
C                     0.358117623968    -1.858383383015     1.200567838607
C                     0.382332550874    -0.485209654271     0.938890702784
C                     0.966436234011    -1.523432047225     3.399338784314
C                     0.516577718247    -3.444885749475     5.107451735982
C                     1.954945603086    -3.542826629641     4.724645862552
C                     1.274169646893    -2.165155540202     4.720083227848
N                     1.903847203853    -0.554825006584     6.673711306682
N                     0.643735514693    -2.362526172367     2.402809290103
Cl                   -0.003354369670     0.106147355057    -0.661659164868
H                     0.742459603589     1.467207936985     1.790233698113
H                     1.277917967830     0.521307631158     4.044249024788
H                     0.100303910417    -2.564104906380     0.413599536711
H                    -0.222033846253    -3.763380864662     4.380052738063
H                     0.242909590875    -3.547943683308     6.152015825671
H                     2.694081058316    -3.714927012664     5.499688626828
H                     2.189511577503    -3.927854920353     3.738335563461
