
  -OEChem-05262117483D

 24 25  0     0  0  0  0  0  0999 V2000
    0.8101    1.4541    1.4093 C   0  0  0  0  0  0  0  0  0  0  0  0
   -0.2649    0.7904    0.8301 C   0  0  0  0  0  0  0  0  0  0  0  0
    0.7617    1.8930    2.7507 C   0  0  0  0  0  0  0  0  0  0  0  0
   -1.4542    0.5250    1.5565 C   0  0  0  0  0  0  0  0  0  0  0  0
   -0.3985    1.6311    3.4503 C   0  0  0  0  0  0  0  0  0  0  0  0
   -1.4868    0.9644    2.8788 C   0  0  0  0  0  0  0  0  0  0  0  0
   -2.6135   -0.1819    0.9569 C   0  0  0  0  0  0  0  0  0  0  0  0
   -2.0138    1.4681    5.0048 C   0  0  0  0  0  0  0  0  0  0  0  0
   -3.0068   -1.5230   -2.4168 C   0  0  0  0  0  0  0  0  0  0  0  0
   -3.4640   -1.2228   -1.0011 C   0  0  0  0  0  0  0  0  0  0  0  0
   -3.6547   -0.4314    1.5380 O   0  0  0  0  0  0  0  0  0  0  0  0
   -0.6845    1.9549    4.7577 O   0  0  0  0  0  0  0  0  0  0  0  0
   -2.4901    0.8457    3.7999 O   0  0  0  0  0  0  0  0  0  0  0  0
   -2.3813   -0.5259   -0.3359 O   0  0  0  0  0  0  0  0  0  0  0  0
    1.7053    1.6407    0.8238 H   0  0  0  0  0  0  0  0  0  0  0  0
   -0.2117    0.4601   -0.2004 H   0  0  0  0  0  0  0  0  0  0  0  0
    1.5935    2.4123    3.2161 H   0  0  0  0  0  0  0  0  0  0  0  0
   -1.9865    0.7237    5.8075 H   0  0  0  0  0  0  0  0  0  0  0  0
   -2.6689    2.3083    5.2586 H   0  0  0  0  0  0  0  0  0  0  0  0
   -2.7771   -0.6002   -2.9580 H   0  0  0  0  0  0  0  0  0  0  0  0
   -2.1137   -2.1551   -2.4140 H   0  0  0  0  0  0  0  0  0  0  0  0
   -3.8003   -2.0503   -2.9563 H   0  0  0  0  0  0  0  0  0  0  0  0
   -3.6921   -2.1338   -0.4405 H   0  0  0  0  0  0  0  0  0  0  0  0
   -4.3541   -0.5874   -0.9825 H   0  0  0  0  0  0  0  0  0  0  0  0
  1  2  1  0  0  0  0
  1  3  2  0  0  0  0
  1 15  1  0  0  0  0
  2  4  2  0  0  0  0
  2 16  1  0  0  0  0
  3  5  1  0  0  0  0
  3 17  1  0  0  0  0
  4  6  1  0  0  0  0
  4  7  1  0  0  0  0
  5  6  2  0  0  0  0
  5 12  1  0  0  0  0
  6 13  1  0  0  0  0
  7 11  2  0  0  0  0
  7 14  1  0  0  0  0
  8 12  1  0  0  0  0
  8 13  1  0  0  0  0
  8 18  1  0  0  0  0
  8 19  1  0  0  0  0
  9 10  1  0  0  0  0
  9 20  1  0  0  0  0
  9 21  1  0  0  0  0
  9 22  1  0  0  0  0
 10 14  1  0  0  0  0
 10 23  1  0  0  0  0
 10 24  1  0  0  0  0
M  END
$$$$
