24
0 1 C10H10O4
C                     0.729507398680     1.511718593247     1.342913237962
C                    -0.197474361482     0.569183150674     0.916604653270
C                     0.613902710224     2.125139815711     2.609572315039
C                    -1.293952159024     0.181961155835     1.726197646344
C                    -0.456598587687     1.742880375960     3.391992407602
C                    -1.396084075072     0.795145894295     2.973625656278
C                    -2.237742286055    -0.834325423541     1.190528420860
C                    -1.974657665854     1.501390218285     5.031809415079
C                    -5.230996051137    -2.262641740725     2.700701255725
C                    -4.199364597384    -2.103993026522     1.598924960234
O                    -2.123146219947    -1.354503658238     0.092263041533
O                    -0.777321454263     2.195623680122     4.653414106697
O                    -2.337749809608     0.619954433723     3.955308422372
O                    -3.235942588516    -1.120029321438     2.051940330274
H                     1.557523273002     1.784265118938     0.695534168837
H                    -0.107934227745     0.098488933128    -0.056565545959
H                     1.328944711177     2.863269241562     2.958965997597
H                    -1.784114208181     0.908463156048     5.932851972020
H                    -2.781740205198     2.224754896153     5.191675014613
H                    -4.761905155870    -2.605466201515     3.627546816256
H                    -5.736758583138    -1.313432262254     2.900314360988
H                    -5.982530197206    -2.999455563238     2.398978137058
H                    -4.645089905752    -1.754140547322     0.663435962021
H                    -3.672733501696    -3.039513299108     1.389350871870
