36
0 1 C16H17N3
C                    -3.144070624816    -1.303601663126     6.312749339331
C                    -2.262584870050    -0.262371268154     6.623796428156
C                    -2.754272330727    -2.300988286833     5.411553548545
C                     2.138882240949    -0.682999273076     0.684345214144
C                     0.760683503622    -0.431739302859     0.852942359364
C                     2.937865236242    -1.059322498129     1.759500376910
C                    -0.996835930150    -0.208345211878     6.033970402583
C                    -1.488241630421    -2.255405295287     4.824464057082
C                     0.109281026080    -0.552243971198     2.085998223179
C                     2.318114318782    -1.194355774413     3.009584057384
C                     0.927648915038    -0.960991355062     3.156598837069
C                    -0.615966607181    -1.206611619156     5.134269373372
C                     1.891613023625    -1.511574524752     5.103812616055
C                    -1.362202477555    -0.232109216299     2.213278545317
C                     1.210065706980    -2.886923076580     7.155879271513
C                     2.112227415511    -1.793452958258     6.568575722576
N                     2.880260804291    -1.528574834779     4.235527054515
N                     0.673823938213    -1.171046227381     4.518392641649
N                     1.942652456641    -0.538953309836     7.337794214302
H                    -4.128325223905    -1.339870955844     6.772218305920
H                    -2.560186227424     0.511091605809     7.326830080547
H                    -3.432357854728    -3.115101464014     5.169790758771
H                     2.579459988584    -0.565095283181    -0.302178930749
H                     0.176342817888    -0.117094475765    -0.008781108424
H                     4.003783055159    -1.237718555345     1.651938382999
H                    -0.290907636082     0.574910689631     6.284251135663
H                    -1.166123233580    -3.026140451233     4.129847164022
H                    -1.966215680645    -1.130484630138     2.377015271941
H                    -1.562369446146     0.439137401352     3.053502633141
H                    -1.721216167878     0.250717717037     1.300382429440
H                     0.174324361378    -2.555458277760     7.242531664044
H                     1.242254456016    -3.787584631221     6.536005801903
H                     1.567126997984    -3.155891036091     8.156742563034
H                     3.146818414525    -2.160985544406     6.600374901934
H                     2.673195571541     0.116178237175     7.059960123464
H                     2.093381324789    -0.736908809822     8.326955529700
