19   
torsion grid (-165,)
C        0.0667214973   -0.8009097460   -1.1749903669
C        5.1511232844   -1.1164149978    0.2457913123
C        3.4599561433   -1.3146170301    1.9862967372
C        1.1264670762   -0.5262283267   -0.1081933758
N        3.7565935055   -0.8091750971    0.6323177912
O        2.4182847102   -2.8431578687   -0.3718657583
O        3.1315830434   -0.8966540939   -1.8412140812
S        2.6568141107   -1.3994566559   -0.5470012306
H       -0.1551012882   -1.8688634258   -1.2416512432
H        0.3972107534   -0.4487398673   -2.1546934477
H       -0.8537306753   -0.2730123719   -0.9088278587
H        5.3322029408   -0.7652362570   -0.7698767103
H        5.3769352510   -2.1894305778    0.3107288782
H        5.8060741354   -0.5707391130    0.9297979062
H        2.4574068835   -1.0169363104    2.2979147207
H        4.1710469916   -0.8479720598    2.6727352180
H        3.5499682797   -2.4062958579    2.0573612448
H        0.8114987601   -0.8923760563    0.8700769692
H        1.3888282328    0.5317469843   -0.0420043451
19   
torsion grid (-150,)
C        0.0565274714   -0.7944247248   -1.1607755288
C        5.1361528898   -0.9970796395    0.2707450970
C        3.4766419489   -1.4800803816    2.0050651470
C        1.1817941261   -0.4220050772   -0.1969265865
N        3.7217555482   -0.8898168497    0.6780510246
O        2.2619910202   -2.8604025199   -0.2598275107
O        3.1975597130   -1.0777772381   -1.8176051218
S        2.6354740159   -1.4595782848   -0.5161067336
H       -0.2429431006   -1.8370149670   -1.0298953042
H        0.3650882004   -0.6455072945   -2.1983911158
H       -0.8107754996   -0.1569129419   -0.9648691839
H        5.2632428328   -0.5698773722   -0.7230833889
H        5.4961335337   -2.0351193573    0.2699117649
H        5.7253306797   -0.4170497910    0.9862610663
H        2.4326426529   -1.3510383857    2.2968711984
H        4.0964240537   -0.9411472112    2.7267267713
H        3.7197174427   -2.5494807225    2.0401260853
H        0.8926625894   -0.5799184913    0.8442718269
H        1.5235379241    0.6067061778   -0.3261842444
19   
torsion grid (-135,)
C        0.0697466917   -0.7562516385   -1.1698613389
C        5.0998728000   -0.8917486112    0.2684990865
C        3.5414292695   -1.6067666781    2.0409343394
C        1.2279670530   -0.3891416612   -0.2447560003
N        3.7009588607   -0.9899476178    0.7158872141
O        2.1120682320   -2.8973959892   -0.0877411401
O        3.1994965418   -1.3203812329   -1.7719870373
S        2.5985927881   -1.5582436999   -0.4533047431
H       -0.3097210304   -1.7557689738   -0.9444696905
H        0.3817896187   -0.7279685121   -2.2168950934
H       -0.7437600461   -0.0371463925   -1.0343425840
H        5.1389068478   -0.4411807949   -0.7220297455
H        5.6005775748   -1.8692014240    0.2370671367
H        5.6260718082   -0.2452659528    0.9767757080
H        2.4925572917   -1.5976203445    2.3429750085
H        4.1087737837   -1.0071028298    2.7582556721
H        3.8996763675   -2.6435412668    2.0670621332
H        0.9403471136   -0.4280115413    0.8090236448
H        1.6487980940    0.5940467639   -0.4645266073
19   
torsion grid (-120,)
C        0.1265951772   -0.7007421456   -1.2453366493
C        5.0400042474   -0.7745234039    0.2657353917
C        3.6519088275   -1.7312997576    2.0732564501
C        1.2808000957   -0.3583821346   -0.3061188642
N        3.6872750485   -1.0613847456    0.7655532098
O        1.9788824057   -2.8916415055    0.1056756664
O        3.1940512576   -1.5595677228   -1.7052180983
S        2.5667899536   -1.6348896979   -0.3790585279
H       -0.3349113190   -1.6512866557   -0.9668617401
H        0.4716427096   -0.7689028181   -2.2800935222
H       -0.6340855438    0.0837526680   -1.1870417637
H        4.9839087275   -0.2872830769   -0.7064969280
H        5.6503538616   -1.6825826643    0.1691066299
H        5.5196027627   -0.0961094528    0.9776234654
H        2.6215976895   -1.8688329545    2.4024592797
H        4.1642469925   -1.0854130288    2.7923306097
H        4.1429508001   -2.7127082515    2.0537426645
H        0.9643544147   -0.3059103691    0.7388542669
H        1.7792780201    0.5757687828   -0.5744153312
19   
torsion grid (-105,)
C        0.2119272976   -0.6657098035   -1.3686414037
C        4.9155719950   -0.6673251395    0.2585653276
C        3.7947750044   -1.8694548438    2.0946358799
C        1.3264787269   -0.3410962502   -0.3768487825
N        3.6400533200   -1.0996557238    0.8501147377
O        1.8089759731   -2.8453382559    0.3714592353
O        3.1454137571   -1.8687828725   -1.5750131455
S        2.5028082902   -1.7161556702   -0.2620392627
H       -0.3435413947   -1.5534195755   -1.0557970411
H        0.6169177130   -0.8404143340   -2.3684160236
H       -0.4851271414    0.1762657971   -1.4198411012
H        4.7366998484   -0.0663009671   -0.6332933427
H        5.5587031794   -1.5131850651   -0.0162811249
H        5.4306024949   -0.0481883405    0.9987577903
H        2.8184963835   -2.1574270039    2.4820121315
H        4.2888198192   -1.2206120907    2.8237805397
H        4.3983141630   -2.7762550887    1.9545964277
H        0.9547149557   -0.1861507664    0.6385204184
H        1.9114358262    0.5314508281   -0.6787959932
19   
torsion grid (-90,)
C        0.3023745244   -0.6719424545   -1.4371843412
C        4.7734237605   -0.5561912758    0.2810500180
C        3.9447533452   -1.9880509479    2.0985095801
C        1.3931233984   -0.3273574515   -0.4253737073
N        3.5951496727   -1.1161482029    0.9627323952
O        1.6446540973   -2.7484036694    0.6534117885
O        3.0741030827   -2.1662258976   -1.3756242493
S        2.4380106382   -1.7750292787   -0.1081139075
H       -0.3360634612   -1.4769606644   -1.0646920231
H        0.7363635585   -0.9819903144   -2.3907959292
H       -0.3221518791    0.2096790860   -1.6101208027
H        4.4666682054    0.1165303641   -0.5221243596
H        5.4199852407   -1.3330652708   -0.1455100415
H        5.3370721643    0.0250699353    1.0160197888
H        3.0376096079   -2.3911118579    2.5460636798
H        4.4637679791   -1.3697597399    2.8363638164
H        4.6002283653   -2.8192332820    1.8044183500
H        0.9908752959   -0.0415943318    0.5485119291
H        2.0534874050    0.4649028320   -0.7869743172
19   
torsion grid (-75,)
C        0.3296185903   -0.6898218304   -1.4647575166
C        4.6421697132   -0.4456498264    0.3530464791
C        4.0189678131   -2.1148250418    2.0467419275
C        1.4681174476   -0.3012176622   -0.5224273629
N        3.5467300744   -1.1453076397    1.0416626136
O        1.4821538643   -2.6209958859    0.8036608430
O        3.0046308865   -2.3625959760   -1.2181740820
S        2.3730452507   -1.7913412879   -0.0164926516
H       -0.3705783227   -1.3694215878   -0.9732227492
H        0.7145263199   -1.1731736443   -2.3658771403
H       -0.2149949501    0.2118201706   -1.7604181286
H        4.2493854065    0.3191185603   -0.3190280970
H        5.2804779637   -1.1275462432   -0.2236638591
H        5.2440627242    0.0572888773    1.1146297628
H        3.1624502035   -2.5973211716    2.5161103505
H        4.5719757363   -1.5551858639    2.8060108766
H        4.6787973409   -2.8802871785    1.6154163562
H        1.1102732856    0.1575072291    0.4014410116
H        2.1817190853    0.3657018004   -1.0095528408
19   
torsion grid (-60,)
C        0.3092290749   -0.7331764625   -1.4553374726
C        4.4996920192   -0.3582487952    0.4612113245
C        4.0511660511   -2.2562791702    1.9618450000
C        1.5698473966   -0.3435975162   -0.6827377495
N        3.4814232161   -1.2064513654    1.0974890114
O        1.3301634880   -2.5406193003    0.8428605344
O        2.9714950440   -2.5659688382   -1.0925474855
S        2.3219869503   -1.8434888161    0.0162314498
H       -0.4217335745   -1.2085194337   -0.7978978871
H        0.5464156846   -1.4197887709   -2.2718000547
H       -0.1396463549    0.1682759748   -1.8827638941
H        4.0363416040    0.5057386354   -0.0172168713
H        5.1077203485   -0.9010954510   -0.2758831374
H        5.1539594114    0.0173114196    1.2521344383
H        3.2417290436   -2.8420355354    2.3979877775
H        4.5966991477   -1.7588533663    2.7680266410
H        4.7364723382   -2.9217665380    1.4191808347
H        1.3523871798    0.3188640506    0.1582520944
H        2.3122708721    0.1122122185   -1.3389587608
19   
torsion grid (-45,)
C        0.3647164844   -0.7233707341   -1.4890986224
C        4.3971812176   -0.2580990147    0.5397247522
C        4.1411457345   -2.3087205001    1.8830986289
C        1.6451263534   -0.3565067925   -0.7374981597
N        3.4702157516   -1.2130320658    1.1610331442
O        1.1949515797   -2.3560537708    1.0089391176
O        2.8342776868   -2.7232787910   -0.8866228104
S        2.2493352204   -1.8329675728    0.1337657487
H       -0.4131820128   -1.0559011381   -0.7986584181
H        0.5517233196   -1.5168671939   -2.2166841282
H        0.0026645668    0.1585029067   -2.0256452383
H        3.8680900851    0.6393472006    0.2179799419
H        4.9555000950   -0.6830729263   -0.3077410489
H        5.1130525177    0.0441576047    1.3084284190
H        3.3879694944   -2.9647847382    2.3221457070
H        4.7244727360   -1.8634898255    2.6931855899
H        4.8041566123   -2.8956248245    1.2334938108
H        1.4691219567    0.4155027347    0.0158674947
H        2.4354304341   -0.0453288997   -1.4215660476
19   
torsion grid (-30,)
C        0.4269548724   -0.7445471475   -1.5284667576
C        4.3290777530   -0.1886994312    0.6247870371
C        4.2273934295   -2.3618895403    1.7920766792
C        1.6894430537   -0.3759340805   -0.7472836083
N        3.4830101839   -1.2336807159    1.2092945889
O        1.0840990962   -2.1327797230    1.1985427864
O        2.6406319355   -2.8482559767   -0.6620840030
S        2.1696324863   -1.8051037961    0.2687533981
H       -0.3979838452   -0.9777501904   -0.8518624273
H        0.6057083108   -1.6059066200   -2.1761032045
H        0.1361448023    0.1049549727   -2.1532996354
H        3.7504904780    0.7137552725    0.4265131396
H        4.8505814406   -0.5037245733   -0.2925392208
H        5.0834563001    0.0679820835    1.3732192175
H        3.5252208111   -3.0688749571    2.2378016666
H        4.8625339328   -1.9646300012    2.5881768214
H        4.8449550034   -2.8866123605    1.0513273816
H        1.5145651196    0.4654902110   -0.0722637142
H        2.5262565049   -0.1594587487   -1.4127314387
19   
torsion grid (-15,)
C        0.4906757136   -0.7738275804   -1.6004660463
C        4.2774510904   -0.1370312468    0.7079923911
C        4.2986498710   -2.4172172091    1.6507505496
C        1.7341601702   -0.3989245193   -0.7920903593
N        3.4950299333   -1.2635168063    1.2198158536
O        0.9969926963   -1.8830242984    1.3119724643
O        2.4484849297   -2.9377861181   -0.4693255646
S        2.1002525642   -1.7646611947    0.3537074460
H       -0.3723189701   -0.9162849189   -0.9462953241
H        0.6565107044   -1.6908066313   -2.1700149656
H        0.2663353790    0.0360736139   -2.3008239551
H        3.6555324489    0.7515583617    0.5965369229
H        4.7926279368   -0.3477956012   -0.2427206752
H        5.0368941825    0.0937476287    1.4600951563
H        3.6485434785   -3.1774920219    2.0868910610
H        4.9839665118   -2.0689638137    2.4283469335
H        4.8678473178   -2.8686578070    0.8275629465
H        1.5662841655    0.4997089798   -0.1943741530
H        2.6088142751   -0.2678376153   -1.4315676744
19   
torsion grid (0,)
C        0.5479039350   -0.8082616818   -1.6140610299
C        4.2243205013   -0.0776586469    0.8490840315
C        4.3617703589   -2.4321409651    1.5365803095
C        1.7799451921   -0.4209664697   -0.7944716884
N        3.4965944652   -1.2663094661    1.2972762180
O        0.9330973796   -1.5498365625    1.4566643368
O        2.2404635151   -2.9777009318   -0.1766074780
S        2.0324815606   -1.6842481380    0.4960336790
H       -0.3440950987   -0.8461390413   -0.9847482689
H        0.6848357072   -1.7817412170   -2.0896633277
H        0.3906689439   -0.0573064083   -2.3941103419
H        3.5683642634    0.7935496643    0.8219741891
H        4.7132311609   -0.2002723233   -0.1302333845
H        4.9999138218    0.1279594601    1.5920320086
H        3.7750016740   -3.2584073505    1.9377391321
H        5.1002836974   -2.1382826107    2.2877937380
H        4.8757635164   -2.7756681626    0.6287092888
H        1.6392739669    0.5365183521   -0.2897764935
H        2.6818123951   -0.3902162197   -1.4096931855
19   
torsion grid (15,)
C        0.5765717391   -0.8532793709   -1.6408969248
C        4.1360399692   -0.0463106945    0.9886735415
C        4.3992082542   -2.4440247909    1.3778973413
C        1.8458707402   -0.5132646324   -0.8585710417
N        3.4703816650   -1.3004037088    1.3540924084
O        0.8975439937   -1.2475786427    1.4876023862
O        2.0418495259   -3.0217891815    0.0729120519
S        1.9731063467   -1.6407903257    0.5725121395
H       -0.3113540080   -0.7232184223   -1.0182641753
H        0.6041293355   -1.8830848516   -2.0038817404
H        0.4983213807   -0.1826716458   -2.5020608186
H        3.4475375884    0.7957771096    1.0835298463
H        4.5703154861   -0.0570706286   -0.0224938599
H        4.9454167862    0.1176232962    1.7052392230
H        3.8733863027   -3.3479621769    1.6795792688
H        5.1650313792   -2.2188018573    2.1256612814
H        4.8831580850   -2.6243799077    0.4073780968
H        1.8139889850    0.5032756936   -0.4646995682
H        2.7438361793   -0.6473435344   -1.4675436982
19   
torsion grid (30,)
C        0.5892751756   -0.9206602255   -1.6266206125
C        4.0391741192   -0.0351615425    1.1547195776
C        4.3990975431   -2.4457804965    1.2412236124
C        1.8891449901   -0.6379015697   -0.8728693325
N        3.4342672605   -1.3461339834    1.4189080690
O        0.9035213045   -0.9871884902    1.5361990965
O        1.8336211619   -3.0367735661    0.3408776879
S        1.9125112426   -1.6093988380    0.6739820257
H       -0.2776634219   -0.6344108039   -1.0268527585
H        0.5063348661   -1.9797921585   -1.8807929491
H        0.5776120027   -0.3387645872   -2.5533433660
H        3.3129211600    0.7590920175    1.3414277546
H        4.4412579083    0.0591061436    0.1351772517
H        4.8621103719    0.1016270380    1.8615120154
H        3.9139781562   -3.4001243245    1.4349171554
H        5.1961271622   -2.2980742630    1.9755766709
H        4.8439850697   -2.4669319795    0.2347461159
H        1.9693945405    0.4115526345   -0.5873875911
H        2.7672481162   -0.9286758177   -1.4575134722
19   
torsion grid (45,)
C        0.6232730589   -0.9570921351   -1.6438922869
C        4.0061093800    0.0001756020    1.2860327076
C        4.4155813920   -2.4049774391    1.0786672325
C        1.9509455900   -0.7386743287   -0.9181717992
N        3.4448670372   -1.3506832889    1.4130166499
O        0.9745099651   -0.7488641135    1.5276165360
O        1.6972616149   -2.9842571179    0.5271684832
S        1.9020031160   -1.5447735502    0.7184528023
H       -0.2044667845   -0.5259809478   -1.0759526511
H        0.4296563945   -2.0219209364   -1.7923118060
H        0.6619326640   -0.4709331383   -2.6235251061
H        3.2452718623    0.7419006817    1.5370156982
H        4.4095398880    0.2022201349    0.2827112944
H        4.8198975951    0.0982214346    2.0099362029
H        3.9448402917   -3.3814188652    1.1757587706
H        5.2375411258   -2.3347955769    1.7968168448
H        4.8282902684   -2.2979476844    0.0632367580
H        2.1435360146    0.3202797346   -0.7380156561
H        2.7912837270   -1.1751437370   -1.4669999210
19   
torsion grid (60,)
C        0.6162805904   -0.9874639044   -1.6334337011
C        3.9990034514    0.0271994465    1.4296337184
C        4.4329979482   -2.3517930926    0.9506078178
C        1.9805025433   -0.8559326193   -0.9567358851
N        3.4650197662   -1.3387254189    1.3892512042
O        1.0524661143   -0.5622879065    1.5048679878
O        1.6069983059   -2.9212899139    0.6915871115
S        1.9043219985   -1.4871399239    0.7516017278
H       -0.1412013627   -0.4137984947   -1.0941623819
H        0.3010878139   -2.0327454196   -1.6740479482
H        0.6788812438   -0.6037692342   -2.6563659204
H        3.2175952238    0.7154940609    1.7538537224
H        4.4041614869    0.3527128014    0.4593861069
H        4.8064461848    0.0557443622    2.1669063411
H        3.9601528941   -3.3328963189    0.9539099665
H        5.2592449012   -2.3584477995    1.6672981923
H        4.8427548418   -2.1425023412   -0.0500176219
H        2.3005064860    0.1864991587   -0.8874851317
H        2.7493161046   -1.4389526649   -1.4722156673
19   
torsion grid (75,)
C        0.5940710955   -1.0243062929   -1.6642102225
C        3.9938554113    0.0423746370    1.5644974042
C        4.4305041603   -2.2899430884    0.8328511418
C        1.9787571916   -0.9534809887   -1.0215212845
N        3.4674178082   -1.3041190319    1.3282736311
O        1.1072230109   -0.3930605026    1.4297800305
O        1.5226865593   -2.8341214317    0.7919051359
S        1.8952041904   -1.4174285960    0.7378789415
H       -0.0993356525   -0.3400217138   -1.1694988219
H        0.1894289921   -2.0373768659   -1.6032857351
H        0.6661053369   -0.7423824280   -2.7191471756
H        3.2054594353    0.6743105397    1.9720186879
H        4.4027058976    0.5031653959    0.6517519917
H        4.7970105805   -0.0315165754    2.3036378711
H        3.9407604741   -3.2586543519    0.7335077804
H        5.2335272098   -2.3841192642    1.5698325185
H        4.8760619921   -1.9986400556   -0.1309057663
H        2.3931690186    0.0581911617   -1.0540777131
H        2.6816156972   -1.6481644411   -1.4893770895
19   
torsion grid (90,)
C        0.2942373120   -1.1096045647   -1.4543786586
C        4.4546141097   -2.2580807252    0.6260718559
C        4.2537991631   -0.1317287749    1.8419573093
C        1.2084040570   -1.4819021823   -0.2890775981
N        3.5807069499   -1.1324755404    0.9946795177
O        3.4211654764   -0.7584972681   -1.5892616601
O        2.3558259064    0.8995870628    0.0278502174
S        2.7183212911   -0.4784757157   -0.3275845959
H        0.7873138180   -1.2906081162   -2.4124833305
H        0.0043927682   -0.0571059229   -1.4029516158
H       -0.6137988914   -1.7184971151   -1.4105955699
H        3.9027011287   -2.9940696151    0.0383177365
H        4.7848069465   -2.7387256257    1.5511112009
H        5.3296393493   -1.9377788746    0.0470502963
H        3.5687647426    0.6858727844    2.0608820777
H        5.1603460589    0.2748854758    1.3730876437
H        4.5289901820   -0.6282244404    2.7767572597
H        1.5235908177   -2.5275257896   -0.3319812050
H        0.7542565898   -1.2844084083    0.6838889004
19   
torsion grid (105,)
C        0.2095515951   -1.0614415754   -1.3958563233
C        4.6269610990   -2.2177628230    0.5844021145
C        4.0707708478   -0.1841308127    1.8601246311
C        1.1526574926   -1.4308744634   -0.2533496063
N        3.6136014209   -1.1983470357    0.8969410616
O        3.3735738413   -1.1083839659   -1.6821519055
O        2.5370402176    0.8379325679   -0.2536749419
S        2.7531542628   -0.6017120935   -0.4498777684
H        0.6249509873   -1.3658510953   -2.3596332731
H        0.0256493844    0.0156480667   -1.4182919989
H       -0.7483654260   -1.5713928721   -1.2552371198
H        4.2180138514   -2.9639022487   -0.0972682773
H        4.8981832112   -2.7128666292    1.5213023626
H        5.5278914273   -1.7877927682    0.1282361909
H        3.2777741666    0.5377573653    2.0502341684
H        4.9605824484    0.3559472861    1.5098278331
H        4.3113204978   -0.7014124200    2.7935508140
H        1.3698134919   -2.5016546916   -0.2224042311
H        0.7757952915   -1.1159520729    0.7223501484
19   
torsion grid (120,)
C        0.1460341260   -0.9610978019   -1.2971662556
C        4.7821401453   -2.1653443822    0.5707674594
C        3.8866657671   -0.2615225271    1.8680443390
C        1.1183383739   -1.3776602785   -0.1959789448
N        3.6412811394   -1.2754924847    0.8327510895
O        3.3026558995   -1.4393042057   -1.7078998591
O        2.7052423900    0.7344062927   -0.5043791285
S        2.7800418148   -0.7331580807   -0.5305801379
H        0.4655674924   -1.3483848508   -2.2679066327
H        0.0718013239    0.1272026994   -1.3616611781
H       -0.8472738085   -1.3634610048   -1.0760111802
H        4.5270372773   -2.8804523715   -0.2098240299
H        4.9981135756   -2.7086197260    1.4955628328
H        5.6797544879   -1.6129249911    0.2616551947
H        2.9867569864    0.3286050362    2.0433530117
H        4.7019489235    0.4222005205    1.5988014789
H        4.1454123508   -0.7855889432    2.7927749594
H        1.2332976374   -2.4614636960   -0.1234314259
H        0.8313882841   -0.9836096089    0.7824067775
19   
torsion grid (135,)
C        0.1191469863   -0.8601100613   -1.2451320254
C        4.8819330214   -2.0737923876    0.5527512142
C        3.7368182436   -0.3336373634    1.8726171912
C        1.0840812204   -1.3036984915   -0.1477775140
N        3.6273824013   -1.3502114441    0.8160665509
O        3.2226878901   -1.6637146201   -1.6915928247
O        2.8291965805    0.6403096640   -0.6704234187
S        2.7823505683   -0.8263432031   -0.5684259630
H        0.3739530974   -1.3248520552   -2.2009251404
H        0.1378378032    0.2254671258   -1.3676275741
H       -0.8977841122   -1.1619095765   -0.9767295329
H        4.7293230676   -2.7962282699   -0.2475481525
H        5.1517580295   -2.6065268724    1.4691924512
H        5.7049009145   -1.4008429016    0.2753203034
H        2.7650407198    0.1253613143    2.0634523778
H        4.4503072953    0.4603451671    1.6187546094
H        4.0623407273   -0.8371776447    2.7872233154
H        1.1100327878   -2.3878206076   -0.0210329477
H        0.8560264237   -0.8362390453    0.8135532407
19   
torsion grid (150,)
C        0.1222620077   -0.8183329881   -1.2503228835
C        4.9551886054   -1.9932385907    0.5259993083
C        3.6298879908   -0.4339542342    1.8703732096
C        1.0552997282   -1.2428371039   -0.1175550118
N        3.6100023499   -1.4576353812    0.8115323500
O        3.1320236178   -1.8901844380   -1.6629078265
O        2.9521803202    0.5009604740   -0.8086280436
S        2.7800752871   -0.9455596053   -0.5954690806
H        0.3300270676   -1.3850105090   -2.1612249526
H        0.2289368760    0.2470881105   -1.4678200128
H       -0.9134222166   -1.0102343706   -0.9544390604
H        4.8932147971   -2.7267449131   -0.2767935242
H        5.3076075332   -2.4883007690    1.4349780241
H        5.6704347583   -1.2072901647    0.2470355354
H        2.6184922929   -0.0852818834    2.0877276627
H        4.2487583493    0.4323685869    1.6050135402
H        4.0259720373   -0.9017498728    2.7757232812
H        0.9930701460   -2.3105344524    0.1012889394
H        0.8689920981   -0.6740085909    0.7958729627
19   
torsion grid (165,)
C        0.1337994369   -0.8206117349   -1.2647606252
C        5.0122939045   -1.9012639996    0.4678679077
C        3.5532521220   -0.5796190222    1.9007246459
C        1.0441636833   -1.1036557756   -0.0699062136
N        3.6118078419   -1.5553220060    0.7956236258
O        3.0037368093   -2.0338727096   -1.6369935442
O        3.0884887663    0.3949594594   -0.8952060600
S        2.7771524348   -1.0159070784   -0.6047126785
H        0.2887914857   -1.5557362251   -2.0576274394
H        0.3173480278    0.1775552096   -1.6699070377
H       -0.9094741921   -0.8750568741   -0.9401605886
H        5.0279169594   -2.5939397941   -0.3733542083
H        5.4377483999   -2.3992248421    1.3428612776
H        5.6171152011   -1.0162373932    0.2280870042
H        2.5190583221   -0.3878306166    2.1913788081
H        4.0388882864    0.3719440204    1.6485183378
H        4.0597729827   -1.0273130676    2.7595694978
H        0.9019276589   -2.1075473134    0.3356823971
H        0.9086744193   -0.3621726048    0.7188471566
19   
torsion grid (180,)
C        0.0807511814   -0.8068448210   -1.1943352935
C        5.1698789522   -1.2172433840    0.2012745402
C        3.4473344753   -1.1407613698    1.9078336416
C        1.1151426266   -0.6469471701   -0.0796858307
N        3.8096070793   -0.7352808837    0.5352204025
O        2.6028830769   -2.7979345989   -0.5729406376
O        3.0786627274   -0.6975036567   -1.9142534527
S        2.7025393379   -1.3284474399   -0.6448083511
H       -0.0613034885   -1.8599891392   -1.4494538379
H        0.3863152090   -0.2663128705   -2.0925274620
H       -0.8767546585   -0.4035846589   -0.8518902267
H        5.4052878045   -0.9520071968   -0.8302543513
H        5.2731105597   -2.3018160106    0.3364926270
H        5.8707594953   -0.7004967652    0.8614402285
H        2.5011435670   -0.6869721926    2.2060639789
H        4.2206056381   -0.7525344295    2.5754139680
H        3.3884614316   -2.2313013491    2.0281039512
H        0.8288287214   -1.2036406967    0.8133321989
H        1.2942224327    0.4017304200    0.1698522386
