22
0 1 C7Cl2H5N3O2S3
C                    -0.463549896569    -0.063225685664    -1.833947514040
C                    -0.873946339499     0.456685314540    -0.564031557611
C                    -1.520220730030    -0.177813385481    -2.690965569822
C                    -2.221507907122     0.712561551571    -0.485279262241
C                    -0.675479770748    -4.061854226702     0.564315953319
C                    -0.569047586057    -1.841470514230     1.431117987716
C                    -0.483427036168    -5.405435148718    -0.066140182070
N                    -1.811387207853    -3.648457819955     1.054354418430
N                    -1.758145355161    -2.366552597095     1.542143965065
N                    -0.272506959110    -0.562775957676     1.920070702902
O                     0.118827748093     1.886748980166     1.473303439315
O                     1.560345639655     0.132356602701     0.286512131417
S                    -3.032664073801     0.332095255257    -1.975784395263
S                     0.622817509979    -2.881603273956     0.690430561563
S                     0.279090103531     0.611767866478     0.790795200356
Cl                   -1.481924678012    -0.744639078141    -4.320803194707
Cl                   -3.115787166552     1.287100954595     0.865302700731
H                     0.560608633033    -0.325316865613    -2.069065833046
H                    -0.175666391827    -5.311009428717    -1.112421102550
H                     0.282043325125    -5.985198970173     0.459045778282
H                    -1.430126875843    -5.947061337937    -0.023155863387
H                    -1.053273510476    -0.188011164800     2.462077322910
