22
0 1 C7Cl2H5N3O2S3
C                     2.410994100479    -2.297973061545     3.654526233703
C                     1.203781283094    -1.531006340561     3.608904437593
C                     2.488144989190    -3.035389288810     4.798629260525
C                     0.392601753241    -1.714315739385     4.700042604241
C                    -1.412959007143    -4.797339930834     0.853664146496
C                    -0.739720169589    -2.548900221630     1.341530540245
C                    -2.089165078905    -6.086046483172     0.507042902721
N                    -0.155270044716    -4.686701618127     1.156305181245
N                     0.238292562046    -3.400873609896     1.443032904749
N                    -0.607047505216    -1.182559398367     1.558592158050
O                     1.903525654612    -0.638749072545     1.260786956323
O                     0.349905015913     0.815837702210     2.668998931672
S                     1.091581548358    -2.831615490686     5.835071019791
S                    -2.278804400271    -3.253313618930     0.880097574773
S                     0.820833934136    -0.488783008054     2.216868763978
Cl                    3.759993257371    -4.101866892549     5.270304683747
Cl                   -1.161172976570    -1.032605483785     5.000785014659
H                     3.144983947640    -2.300121827943     2.858655102041
H                    -2.908252611827    -6.304584642980     1.199520215899
H                    -2.501582528979    -6.057599345104    -0.506494897385
H                    -1.351423534657    -6.888400051540     0.566065788894
H                    -1.431921342223    -0.666772027452     1.851604945744
