
  -OEChem-05262117483D

 29 30  0     0  0  0  0  0  0999 V2000
    1.8817   -1.2586   -0.0231 C   0  0  0  0  0  0  0  0  0  0  0  0
    0.8123   -0.6254    0.6256 C   0  0  0  0  0  0  0  0  0  0  0  0
    2.8745   -1.8900    0.7311 C   0  0  0  0  0  0  0  0  0  0  0  0
    0.7358   -0.6233    2.0161 C   0  0  0  0  0  0  0  0  0  0  0  0
    2.7971   -1.8887    2.1253 C   0  0  0  0  0  0  0  0  0  0  0  0
   -1.6162   -1.3204    7.7053 C   0  0  0  0  0  0  0  0  0  0  0  0
   -0.2661   -3.2944    7.2407 C   0  0  0  0  0  0  0  0  0  0  0  0
   -2.6927   -2.1377    8.0562 C   0  0  0  0  0  0  0  0  0  0  0  0
   -1.3389   -4.1136    7.5908 C   0  0  0  0  0  0  0  0  0  0  0  0
    1.7292   -1.2569    2.7889 C   0  0  0  0  0  0  0  0  0  0  0  0
   -0.4177   -1.9066    7.2943 C   0  0  0  0  0  0  0  0  0  0  0  0
   -2.5434   -3.5255    7.9915 C   0  0  0  0  0  0  0  0  0  0  0  0
    1.7019   -1.2907    4.2539 C   0  0  0  0  0  0  0  0  0  0  0  0
    0.7843   -0.7343    5.0587 C   0  0  0  0  0  0  0  0  0  0  0  0
    0.6983    0.4839    7.3899 O   0  0  0  0  0  0  0  0  0  0  0  0
    2.2057   -1.5805    7.1185 O   0  0  0  0  0  0  0  0  0  0  0  0
    0.9614   -0.8497    6.8270 S   0  0  0  0  0  0  0  0  0  0  0  0
   -3.8916   -4.5533    8.4312 Cl  0  0  0  0  0  0  0  0  0  0  0  0
    1.9381   -1.2570   -1.1083 H   0  0  0  0  0  0  0  0  0  0  0  0
    0.0395   -0.1329    0.0415 H   0  0  0  0  0  0  0  0  0  0  0  0
    3.7073   -2.3814    0.2355 H   0  0  0  0  0  0  0  0  0  0  0  0
   -0.0990   -0.1265    2.5021 H   0  0  0  0  0  0  0  0  0  0  0  0
    3.5716   -2.3785    2.7108 H   0  0  0  0  0  0  0  0  0  0  0  0
   -1.6950   -0.2394    7.7677 H   0  0  0  0  0  0  0  0  0  0  0  0
    0.6850   -3.7259    6.9443 H   0  0  0  0  0  0  0  0  0  0  0  0
   -3.6325   -1.7051    8.3838 H   0  0  0  0  0  0  0  0  0  0  0  0
   -1.2434   -5.1942    7.5620 H   0  0  0  0  0  0  0  0  0  0  0  0
    2.5220   -1.8178    4.7402 H   0  0  0  0  0  0  0  0  0  0  0  0
   -0.0817   -0.1602    4.7448 H   0  0  0  0  0  0  0  0  0  0  0  0
  1  2  1  0  0  0  0
  1  3  2  0  0  0  0
  1 19  1  0  0  0  0
  2  4  2  0  0  0  0
  2 20  1  0  0  0  0
  3  5  1  0  0  0  0
  3 21  1  0  0  0  0
  4 10  1  0  0  0  0
  4 22  1  0  0  0  0
  5 10  2  0  0  0  0
  5 23  1  0  0  0  0
  6  8  2  0  0  0  0
  6 11  1  0  0  0  0
  6 24  1  0  0  0  0
  7  9  1  0  0  0  0
  7 11  2  0  0  0  0
  7 25  1  0  0  0  0
  8 12  1  0  0  0  0
  8 26  1  0  0  0  0
  9 12  2  0  0  0  0
  9 27  1  0  0  0  0
 10 13  1  0  0  0  0
 11 17  1  0  0  0  0
 12 18  1  0  0  0  0
 13 14  2  0  0  0  0
 13 28  1  0  0  0  0
 14 17  1  0  0  0  0
 14 29  1  0  0  0  0
 15 17  2  0  0  0  0
 16 17  2  0  0  0  0
M  END
$$$$
