
  -OEChem-05262117483D

 35 37  0     1  0  0  0  0  0999 V2000
   -3.0537   -5.5082   -0.8222 C   0  0  0  0  0  0  0  0  0  0  0  0
   -5.2488   -2.5906   -1.5696 C   0  0  0  0  0  0  0  0  0  0  0  0
    1.6471   -1.0130    0.2151 C   0  0  0  0  0  0  0  0  0  0  0  0
    0.2516   -1.0309    0.1098 C   0  0  0  0  0  0  0  0  0  0  0  0
   -4.4706   -1.8686   -2.4782 C   0  0  0  0  0  0  0  0  0  0  0  0
   -4.7740   -3.7901   -1.0359 C   0  0  0  0  0  0  0  0  0  0  0  0
    2.3829   -2.1207   -0.2042 C   0  0  0  0  0  0  0  0  0  0  0  0
   -0.3869   -2.1510   -0.4174 C   0  0  0  0  0  0  0  0  0  0  0  0
   -3.2119   -2.3452   -2.8583 C   0  0  0  0  0  0  0  0  0  0  0  0
   -3.5131   -4.2809   -1.4119 C   0  0  0  0  0  0  0  0  0  0  0  0
    1.7627   -3.2504   -0.7573 C   0  0  0  0  0  0  0  0  0  0  0  0
    0.3611   -3.2476   -0.8690 C   0  0  0  0  0  0  0  0  0  0  0  0
   -2.7393   -3.5417   -2.3271 C   0  0  0  0  0  0  0  0  0  0  0  0
    2.6026   -4.4497   -1.1562 C   0  0  0  0  0  0  0  0  0  0  0  0
    1.8159   -5.5273   -1.9115 C   0  0  0  0  0  0  0  0  0  0  0  0
    0.4188   -5.6700   -1.3127 C   0  0  0  0  0  0  0  0  0  0  0  0
   -2.7370   -6.5033   -0.3069 N   0  0  0  0  0  0  0  0  0  0  0  0
   -0.3211   -4.3907   -1.4154 N   0  0  2  0  0  0  0  0  0  0  0  0
   -1.3411   -5.4572   -3.4957 O   0  0  0  0  0  0  0  0  0  0  0  0
   -0.5287   -3.0495   -3.6611 O   0  0  0  0  0  0  0  0  0  0  0  0
   -1.1338   -4.1393   -2.8931 S   0  0  0  0  0  0  0  0  0  0  0  0
   -6.2251   -2.2198   -1.2713 H   0  0  0  0  0  0  0  0  0  0  0  0
    2.1552   -0.1469    0.6308 H   0  0  0  0  0  0  0  0  0  0  0  0
   -0.3374   -0.1838    0.4511 H   0  0  0  0  0  0  0  0  0  0  0  0
   -4.8384   -0.9336   -2.8909 H   0  0  0  0  0  0  0  0  0  0  0  0
   -5.3686   -4.3550   -0.3249 H   0  0  0  0  0  0  0  0  0  0  0  0
    3.4672   -2.1136   -0.1109 H   0  0  0  0  0  0  0  0  0  0  0  0
   -1.4696   -2.1833   -0.4708 H   0  0  0  0  0  0  0  0  0  0  0  0
   -2.5836   -1.7940   -3.5503 H   0  0  0  0  0  0  0  0  0  0  0  0
    3.4579   -4.1135   -1.7518 H   0  0  0  0  0  0  0  0  0  0  0  0
    3.0214   -4.8849   -0.2392 H   0  0  0  0  0  0  0  0  0  0  0  0
    1.7181   -5.2651   -2.9701 H   0  0  0  0  0  0  0  0  0  0  0  0
    2.3445   -6.4851   -1.8631 H   0  0  0  0  0  0  0  0  0  0  0  0
   -0.1659   -6.4446   -1.8042 H   0  0  0  0  0  0  0  0  0  0  0  0
    0.4588   -5.9082   -0.2450 H   0  0  0  0  0  0  0  0  0  0  0  0
  1 10  1  0  0  0  0
  1 17  3  0  0  0  0
  2  5  1  0  0  0  0
  2  6  2  0  0  0  0
  2 22  1  0  0  0  0
  3  4  1  0  0  0  0
  3  7  2  0  0  0  0
  3 23  1  0  0  0  0
  4  8  2  0  0  0  0
  4 24  1  0  0  0  0
  5  9  2  0  0  0  0
  5 25  1  0  0  0  0
  6 10  1  0  0  0  0
  6 26  1  0  0  0  0
  7 11  1  0  0  0  0
  7 27  1  0  0  0  0
  8 12  1  0  0  0  0
  8 28  1  0  0  0  0
  9 13  1  0  0  0  0
  9 29  1  0  0  0  0
 10 13  2  0  0  0  0
 11 12  2  0  0  0  0
 11 14  1  0  0  0  0
 12 18  1  0  0  0  0
 13 21  1  0  0  0  0
 14 15  1  0  0  0  0
 14 30  1  0  0  0  0
 14 31  1  0  0  0  0
 15 16  1  0  0  0  0
 15 32  1  0  0  0  0
 15 33  1  0  0  0  0
 16 18  1  0  0  0  0
 16 34  1  0  0  0  0
 16 35  1  0  0  0  0
 18 21  1  0  0  0  0
 19 21  2  0  0  0  0
 20 21  2  0  0  0  0
M  END
$$$$
