22
0 1 C9FH8N3O
C                    -1.793134636999    -0.700760497598     0.810725289427
C                    -0.994326910491     0.356173511565     0.381411697859
C                    -1.841212587965     1.808632724053     2.178621152842
C                    -4.067973420295    -0.721042150841     3.635497746180
C                    -2.669256556305     0.753540960680     2.614358558864
C                    -3.613360035622     0.587599755880     3.705358700221
C                    -2.616590501336    -0.488244215694     1.920531505125
C                    -1.036370854811     1.575150467520     1.077275538807
C                    -4.036705545441     1.612574403744     4.660091883879
N                    -4.584559695337     1.456297863974     5.824241609261
N                    -3.484775254618    -1.357137992353     2.567841823547
N                    -3.777681704152     2.948123294136     4.289540029530
O                    -4.699209700479     0.085811080143     6.193926512586
F                    -0.226403177813     2.580444538660     0.637319076968
H                    -1.768387897580    -1.657791178201     0.296205885318
H                    -0.333742012403     0.256043832745    -0.473745548595
H                    -1.808191887685     2.761644420159     2.693208244008
H                    -4.771530444823    -1.228481544879     4.276518576491
H                    -3.643934995253    -2.321807822251     2.314024255203
H                    -4.180039643621     3.588365884690     4.970201122517
H                    -4.116233667519     3.162261774072     3.354882876726
H                    -5.025074539677     0.158806943481     7.104598136805
