22
0 1 BrC8H9N2O2
C                     1.837536928352    -0.982779417070     0.144429151041
C                     0.853510584561    -0.374172976959     0.927320518245
C                     2.026708324770    -1.087969850394     2.922579624421
C                     3.023800053892    -1.701686173821     2.150960853661
C                     2.919577115262    -1.640569381052     0.742014888353
C                     0.961549097259    -0.430481178749     2.314171287091
C                     4.145507697896    -2.377495341507     2.860599981752
C                     3.881843909113    -2.132638013365    -1.410924283726
N                     4.472909537594    -1.874089817720     4.011764873158
N                     4.699803527269    -3.527303105039     2.336542639971
O                     5.519483431745    -2.653798702595     4.591397411039
O                     3.922701358751    -2.233617328531     0.011954467738
Br                   -0.382764010221     0.397801945940     3.404321929688
H                     1.747537960931    -0.931189756174    -0.933881754729
H                     0.017728029236     0.131465193106     0.454991592918
H                     2.107360371617    -1.138163372472     4.001634188218
H                     4.780951259702    -2.635733000089    -1.768584174699
H                     3.899310821146    -1.085172868372    -1.732356078427
H                     2.996948750247    -2.633056935060    -1.820909910512
H                     4.686929312497    -3.587615807744     1.326740915641
H                     5.574137859500    -3.792925823187     2.775726106199
H                     5.725634039895    -2.150156758306     5.393884009266
