35
0 1 C15H14N2O2S2
C                    -0.964624437077    -0.991850657484    -1.764088263950
C                     0.316204910304    -0.504880838100    -2.084184875756
C                    -2.929737037243    -7.696371650932    -5.594766033855
C                    -2.807655574278    -6.697465224985    -7.791204535754
C                    -1.504453905621    -2.091245385647    -2.431394120080
C                    -1.577197653061    -7.418466676807    -5.382803430066
C                    -1.458015499115    -6.415774014376    -7.601972389793
C                    -3.563020667013    -7.341209629855    -6.793659688062
C                     1.105008642188    -1.091935684331    -3.075813389939
C                     0.563578015699    -2.202083288123    -3.754715312665
C                    -0.727013762202    -2.681769073162    -3.431239110603
C                    -0.859293052112    -6.776198909193    -6.390506591041
C                     0.486335103071    -3.889123657122    -5.184597713929
C                    -5.021958500839    -7.651131412758    -7.026790904308
C                     2.482168609943    -0.587164862173    -3.421669379966
N                     1.225310545696    -2.918745534443    -4.747496819322
N                     0.871827392237    -4.695828665569    -6.260558580749
O                     1.661405522051    -6.826746233862    -7.294561335792
O                     1.224100883634    -6.850110423733    -4.779623585831
S                    -1.120470602314    -4.055703446521    -4.454601519551
S                     0.869748635984    -6.423445284728    -6.132412275981
H                    -1.543043508113    -0.503683749289    -0.984436001037
H                     0.705997039479     0.352680598009    -1.541147672547
H                    -3.498388867539    -8.192406746903    -4.812345459741
H                    -3.285202403865    -6.414372091651    -8.726320172985
H                    -2.492801447013    -2.466867302727    -2.183399686555
H                    -1.085261029295    -7.677615123453    -4.451058577582
H                    -0.877312991372    -5.918806751582    -8.372809486436
H                    -5.134038593899    -8.447647309809    -7.771348531493
H                    -5.514515182710    -7.980236964945    -6.108402415828
H                    -5.556466293472    -6.774130614773    -7.405648269063
H                     3.233771829513    -1.368267234689    -3.268260255704
H                     2.539749006665    -0.297245633869    -4.475865563827
H                     2.748101611148     0.277459983717    -2.808018256463
H                     1.776081202871    -4.402718657437    -6.635741725252
