15
0 1 C4H7NS3
C                     4.941367394038    -1.925326575627     5.085044684807
C                    -0.867885339524    -2.317096774507     3.613734539626
C                     3.696981899061    -2.836731893465     3.095060602278
C                     2.747780993260    -1.652237357540     2.893198160488
N                     4.703528368613    -2.542830998241     4.084397662720
S                     5.369292932616    -1.152247339266     6.407728621028
S                     0.253571257520    -3.402080250355     2.652278826269
S                     1.447464890891    -2.008233012644     1.650140588094
H                    -1.556394765558    -2.981184412972     4.145116027383
H                    -1.433611936409    -1.664074686610     2.947126916950
H                    -0.312306382417    -1.722192457498     4.341822589775
H                     4.191831452868    -3.091531519460     2.154485745395
H                     3.133645574469    -3.716984755290     3.422286823935
H                     2.284499696460    -1.364656182321     3.840572457684
H                     3.291618148367    -0.785301478351     2.504351316439
