
  -OEChem-05262117483D

 15 14  0     0  0  0  0  0  0999 V2000
    4.0676   -3.6410    5.1092 C   0  0  0  0  0  0  0  0  0  0  0  0
    2.1671   -1.8857   -0.2405 C   0  0  0  0  0  0  0  0  0  0  0  0
    4.5695   -1.7003    3.6125 C   0  0  0  0  0  0  0  0  0  0  0  0
    3.1887   -1.1242    3.2866 C   0  0  0  0  0  0  0  0  0  0  0  0
    4.5460   -2.6045    4.7298 N   0  0  0  0  0  0  0  0  0  0  0  0
    3.5297   -4.9937    5.7416 S   0  0  0  0  0  0  0  0  0  0  0  0
    2.7769   -3.0996    0.9909 S   0  0  0  0  0  0  0  0  0  0  0  0
    1.9485   -2.3746    2.7660 S   0  0  0  0  0  0  0  0  0  0  0  0
    2.5232   -2.2305   -1.2161 H   0  0  0  0  0  0  0  0  0  0  0  0
    2.5684   -0.8886   -0.0455 H   0  0  0  0  0  0  0  0  0  0  0  0
    1.0762   -1.8572   -0.2408 H   0  0  0  0  0  0  0  0  0  0  0  0
    5.2481   -0.8748    3.8494 H   0  0  0  0  0  0  0  0  0  0  0  0
    4.9698   -2.2197    2.7340 H   0  0  0  0  0  0  0  0  0  0  0  0
    2.7521   -0.6510    4.1721 H   0  0  0  0  0  0  0  0  0  0  0  0
    3.2925   -0.3635    2.5072 H   0  0  0  0  0  0  0  0  0  0  0  0
  1  5  2  0  0  0  0
  1  6  2  0  0  0  0
  2  7  1  0  0  0  0
  2  9  1  0  0  0  0
  2 10  1  0  0  0  0
  2 11  1  0  0  0  0
  3  4  1  0  0  0  0
  3  5  1  0  0  0  0
  3 12  1  0  0  0  0
  3 13  1  0  0  0  0
  4  8  1  0  0  0  0
  4 14  1  0  0  0  0
  4 15  1  0  0  0  0
  7  8  1  0  0  0  0
M  END
$$$$
