18
0 1 C7H9NO
C                     0.137424109505     0.120231438270     0.227359877292
C                    -0.873756677095    -1.855908336532    -2.684866347377
C                     0.512978789329     0.506066639560     1.424674688957
C                    -0.242626428149    -0.232000274587    -0.985255521907
C                    -1.004315458432    -3.373138384514    -2.764199340650
C                    -0.179330144953    -3.893777495518    -1.575715570572
C                    -0.169291748519    -2.718175322234    -0.576279332401
N                    -0.376735671063    -1.551976321061    -1.429871854762
O                    -1.168727679766    -1.035247649723    -3.543695141738
H                     1.562203374462     0.676943284409     1.667644658951
H                    -0.209904226150     0.676761030485     2.223019052024
H                    -0.486227193254     0.506631340437    -1.746037378406
H                    -2.068384930146    -3.619991271668    -2.670839325343
H                    -0.668864362392    -3.731625162504    -3.739161873675
H                    -0.587630982628    -4.803177125892    -1.129471144652
H                     0.844093272835    -4.107842906664    -1.896992898445
H                    -0.976121510493    -2.789497810813     0.165135442536
H                     0.775541259792    -2.626738945464    -0.032788497320
