
  -OEChem-05262117483D

 11 10  0     0  0  0  0  0  0999 V2000
    0.1708    0.3629    0.3350 C   0  0  0  0  0  0  0  0  0  0  0  0
   -0.3704   -2.1867   -0.8437 C   0  0  0  0  0  0  0  0  0  0  0  0
    1.0219    1.3355    0.4510 N   0  5  0  0  0  0  0  0  0  0  0  0
    0.5642    2.4779    1.1672 N   0  0  0  0  0  0  0  0  0  0  0  0
   -1.4993    0.2848    0.8119 S   0  0  0  0  0  0  0  0  0  0  0  0
    1.0175   -1.0748   -0.4443 S   0  0  0  0  0  0  0  0  0  0  0  0
    0.0814   -3.0996   -1.2502 H   0  0  0  0  0  0  0  0  0  0  0  0
   -1.0388   -1.7432   -1.5859 H   0  0  0  0  0  0  0  0  0  0  0  0
   -0.9505   -2.4167    0.0518 H   0  0  0  0  0  0  0  0  0  0  0  0
   -0.4649    2.4587    1.1961 H   0  0  0  0  0  0  0  0  0  0  0  0
    0.8607    3.2851    0.6187 H   0  0  0  0  0  0  0  0  0  0  0  0
  1  3  1  0  0  0  0
  1  5  2  0  0  0  0
  1  6  1  0  0  0  0
  2  6  1  0  0  0  0
  2  7  1  0  0  0  0
  2  8  1  0  0  0  0
  2  9  1  0  0  0  0
  3  4  1  0  0  0  0
  4 10  1  0  0  0  0
  4 11  1  0  0  0  0
M  CHG  1   3  -1
M  END
$$$$
