11
-1 1 C2H5N2S2
C                     0.441256173986     0.195950304656     0.819464301804
C                     2.140269701262    -1.921998061555     1.799187614648
N                     0.072590788767     1.029883898932    -0.100648775205
N                     0.467953323017     0.752712539049    -1.453988545210
S                     0.066017762214     0.335185073364     2.497811204709
S                     1.478459339881    -1.273191494570     0.232890530575
H                     2.735942245995    -2.805620226431     1.539653440149
H                     1.323805955952    -2.190804643184     2.471267469443
H                     2.766374100233    -1.179801813588     2.299169727014
H                     1.456578878240     0.470009060061    -1.479953873910
H                     0.413834406724     1.656510362972    -1.921602035914
