
  -OEChem-05262117483D

 20 19  0     1  0  0  0  0  0999 V2000
   -1.2253   -1.5731   -0.7416 C   0  0  0  0  0  0  0  0  0  0  0  0
   -1.4723   -3.0363   -0.4214 C   0  0  0  0  0  0  0  0  0  0  0  0
    0.9072    0.9279   -1.8507 C   0  0  0  0  0  0  0  0  0  0  0  0
    1.0431    2.3907    2.5564 C   0  0  0  0  0  0  0  0  0  0  0  0
   -0.4811   -0.8960    0.2375 N   0  0  0  0  0  0  0  0  0  0  0  0
   -1.6200   -1.0302   -1.7586 O   0  0  0  0  0  0  0  0  0  0  0  0
   -1.5636    1.4505    1.1400 O   0  0  0  0  0  0  0  0  0  0  0  0
   -0.1149    1.4334   -0.9662 O   0  0  0  0  0  0  0  0  0  0  0  0
   -0.4119    0.8056    0.4708 P   0  0  2  0  0  0  0  0  0  0  0  0
    1.3718    0.8450    1.6151 S   0  0  0  0  0  0  0  0  0  0  0  0
   -2.1866   -3.1169    0.4053 H   0  0  0  0  0  0  0  0  0  0  0  0
   -0.5492   -3.5427   -0.1218 H   0  0  0  0  0  0  0  0  0  0  0  0
   -1.8901   -3.5251   -1.3011 H   0  0  0  0  0  0  0  0  0  0  0  0
    1.0071    1.6705   -2.6425 H   0  0  0  0  0  0  0  0  0  0  0  0
    0.5868   -0.0251   -2.2741 H   0  0  0  0  0  0  0  0  0  0  0  0
    1.8584    0.8244   -1.3198 H   0  0  0  0  0  0  0  0  0  0  0  0
    1.7878    2.4242    3.3538 H   0  0  0  0  0  0  0  0  0  0  0  0
    0.0381    2.3606    2.9767 H   0  0  0  0  0  0  0  0  0  0  0  0
    1.1542    3.2630    1.9115 H   0  0  0  0  0  0  0  0  0  0  0  0
   -0.2813   -1.4274    1.0807 H   0  0  0  0  0  0  0  0  0  0  0  0
  1  2  1  0  0  0  0
  1  5  1  0  0  0  0
  1  6  2  0  0  0  0
  2 11  1  0  0  0  0
  2 12  1  0  0  0  0
  2 13  1  0  0  0  0
  3  8  1  0  0  0  0
  3 14  1  0  0  0  0
  3 15  1  0  0  0  0
  3 16  1  0  0  0  0
  4 10  1  0  0  0  0
  4 17  1  0  0  0  0
  4 18  1  0  0  0  0
  4 19  1  0  0  0  0
  5  9  1  0  0  0  0
  5 20  1  0  0  0  0
  7  9  2  0  0  0  0
  8  9  1  0  0  0  0
  9 10  1  0  0  0  0
M  END
$$$$
