57
1 1 C24FH29NO2
C                     1.457981388352     1.851336430644    -0.488450922896
C                    -0.582628511702     1.014336741275    -1.506619949656
C                    -2.875338937638    -7.341657848244     8.344256682264
C                    -2.219748202393    -6.506209838752     7.423988667459
C                     1.256003109670     3.091772834852    -1.088355795209
C                    -0.794498583564     2.243131310350    -2.118012994624
C                    -1.649972992380    -4.970273810299     9.230041636734
C                     0.543943720813     0.797060393942    -0.685481563994
C                    -2.912917684655    -6.997623413179     9.690408103748
C                    -2.297769598199    -5.810559795981    10.127690982397
C                    -1.613587058422    -5.328860512822     7.874730263569
C                     0.132072783795     3.263992441500    -1.895328689035
C                     0.690677062891    -0.536217061483    -0.058436139773
C                    -3.561150708212    -7.716288960374    10.855978114305
C                    -2.486287672433    -5.641093932285    11.620761841709
C                    -2.881220509496    -7.065092771983    12.086720981574
C                     2.337240291331    -2.298353778089     0.799469018101
C                     1.526423538914    -0.454847085205     2.306316778546
C                     1.365741556531    -3.271187394153     1.461662657244
C                     0.500855397642    -1.413412861270     2.903251855435
C                     1.891786376787    -0.825331067285     0.851941611174
C                    -0.068455845668    -3.610165832018     5.029724970171
C                     0.065411214003    -3.822119005869     3.525927884595
C                    -0.857746150706    -4.751908606769     5.672618241124
N                     1.016960925771    -2.838925142499     2.875199980994
O                    -0.167552004354    -1.410293943708    -0.204207379472
O                    -0.938298331231    -4.440318164076     7.046773620052
F                    -0.065778436529     4.456412168171    -2.480374704490
H                     2.336754030392     1.725386502348     0.135029026991
H                    -1.282382916420     0.198686748805    -1.655268532228
H                    -3.343367096896    -8.257420823993     7.990740296476
H                    -2.191367909991    -6.793577363963     6.378575809275
H                     1.947886924148     3.915864981867    -0.947499870949
H                    -1.652387844955     2.426031353559    -2.757332118027
H                    -1.165630400260    -4.050487235628     9.547736699480
H                    -4.642657680289    -7.525636100604    10.861195235382
H                    -3.426773235953    -8.801685242072    10.821574520512
H                    -1.595148116646    -5.256940239207    12.126496136814
H                    -3.298613505960    -4.927308637247    11.812476590803
H                    -3.521433275622    -7.058934906119    12.972514392296
H                    -1.974552862307    -7.626259761058    12.336519475462
H                     3.321783794717    -2.380698387662     1.276906202170
H                     2.464120772459    -2.624810496705    -0.236367759318
H                     1.112206129600     0.555958530629     2.365238438410
H                     2.434883541066    -0.454945506874     2.922339716641
H                     0.425915289606    -3.318238026942     0.914858871193
H                     1.799714675150    -4.270496455165     1.540706227626
H                     0.289304086256    -1.164075444778     3.942572179974
H                    -0.431902786867    -1.418863233078     2.336844964204
H                     2.743021441133    -0.214732047429     0.547845799480
H                    -0.583333418081    -2.674191192004     5.260319369079
H                     0.921438210830    -3.571336035990     5.501228569553
H                    -0.888512571944    -3.717578709083     3.003888565400
H                     0.464302328353    -4.816297397484     3.308370930462
H                    -0.343897954971    -5.711755748408     5.516402313311
H                    -1.860110908478    -4.826138654240     5.225793709979
H                     1.884248104543    -2.853096148361     3.423781717804
