57
1 1 C24FH29NO2
C                     2.328845000719     0.365612228509    -2.318074297109
C                     0.008016293894    -0.250975929057    -2.684865886992
C                    -0.511676235500    -6.987506359844     9.551497334370
C                    -0.109528490511    -5.981077992062     8.671287880952
C                     2.421442715087     0.822581716503    -3.630389016471
C                     0.081766155380     0.207375166550    -3.993750797180
C                    -0.263602864611    -7.533067828308     6.797066906660
C                     1.125445286144    -0.178419071133    -1.826399145095
C                    -0.795580846212    -8.264064680916     9.060276306363
C                    -0.670696670235    -8.527635916604     7.691866140909
C                     0.012575293150    -6.256796474746     7.302923573995
C                     1.292837944656     0.736885854114    -4.444660528766
C                     0.969408214937    -0.700587054476    -0.449654158109
C                    -1.224420845343    -9.511249682091     9.805506105024
C                    -1.002616344493    -9.976546609595     7.399572563253
C                    -1.761789348810   -10.424145739758     8.674417657230
C                     2.958280771318    -1.963822825967     0.414310496877
C                     1.708596164546    -0.452169189222     1.988400985402
C                     2.192435355677    -3.154345537005     0.981393597207
C                     1.009379065201    -1.659232619880     2.608555183522
C                     2.151623902122    -0.651035556648     0.527472154071
C                     1.000681132850    -4.054557031720     4.545512492144
C                     1.156597911494    -4.144689224796     3.031586250951
C                     0.555121631578    -5.396219247130     5.129897343009
N                     1.830697730954    -2.925425105535     2.436083720272
O                    -0.081099513805    -1.233058255696    -0.082156899832
O                     0.414300299632    -5.183287005479     6.517890166236
F                     1.374177387409     1.180898713277    -5.709492341059
H                     3.211021485206     0.439195108127    -1.691076218373
H                    -0.915945716515    -0.670276974497    -2.300791745125
H                    -0.606354198401    -6.765647851168    10.611814791491
H                     0.107995374171    -4.977133560939     9.023960403716
H                     3.339720272148     1.243381476472    -4.027074758336
H                    -0.769582338101     0.164801526425    -4.665721789640
H                    -0.177113834376    -7.761448895906     5.739169022375
H                    -0.359309029416    -9.970015573254    10.302676365488
H                    -1.971301777445    -9.313731383026    10.580509646685
H                    -1.590709722168   -10.109307032717     6.485654685560
H                    -0.075889425493   -10.552623664008     7.272713005791
H                    -1.636287575402   -11.488189191828     8.890423561208
H                    -2.832263780395   -10.237300997949     8.539126666353
H                     3.913663414167    -1.851499554811     0.942808413345
H                     3.204064080203    -2.188881951874    -0.627742033102
H                     1.019959302057     0.393340458168     2.069666295719
H                     2.591513322500    -0.193996354848     2.586695148121
H                     1.250865116461    -3.320017835114     0.455667770266
H                     2.789753768538    -4.067691040752     0.942414033445
H                     0.866589813168    -1.515898347072     3.679412083227
H                     0.052081631658    -1.850406872664     2.127075149065
H                     2.812061366148     0.177950934514     0.270202355316
H                     0.260570684485    -3.301978607344     4.827497237352
H                     1.953360569170    -3.777655864429     5.014074506540
H                     0.195735617462    -4.243584476061     2.521336597834
H                     1.779969618182    -4.999595646544     2.755688075561
H                     1.304857681111    -6.174739218982     4.925153303760
H                    -0.397297079130    -5.715022549833     4.681150655022
H                     2.709927645605    -2.789285012781     2.947782408761
