
  -OEChem-05262117483D

 30 30  0     1  0  0  0  0  0999 V2000
    0.2657    1.2563   -0.0585 C   0  0  0  0  0  0  0  0  0  0  0  0
    0.3063   -0.0584    0.2917 C   0  0  0  0  0  0  0  0  0  0  0  0
    1.3952    2.1669   -0.1843 C   0  0  0  0  0  0  0  0  0  0  0  0
   -2.0305    0.1574   -0.3122 C   0  0  0  0  0  0  0  0  0  0  0  0
   -1.0374   -0.7267    0.4629 C   0  0  1  0  0  0  0  0  0  0  0  0
   -2.4080   -2.8775    0.2893 C   0  0  0  0  0  0  0  0  0  0  0  0
    5.3725    3.8279    1.2382 C   0  0  0  0  0  0  0  0  0  0  0  0
   -1.0587   -2.1995    0.0283 C   0  0  0  0  0  0  0  0  0  0  0  0
    4.0791    3.0058    1.2873 C   0  0  0  0  0  0  0  0  0  0  0  0
    3.7981    2.3380   -0.0531 C   0  0  0  0  0  0  0  0  0  0  0  0
    1.3246    3.3600   -0.4160 O   0  0  0  0  0  0  0  0  0  0  0  0
    1.3969   -0.8018    0.5577 O   0  0  0  0  0  0  0  0  0  0  0  0
    2.6014    1.5132   -0.0018 O   0  0  0  0  0  0  0  0  0  0  0  0
   -1.3946    1.8893   -0.2651 S   0  0  0  0  0  0  0  0  0  0  0  0
   -2.0823   -0.1643   -1.3579 H   0  0  0  0  0  0  0  0  0  0  0  0
   -3.0340    0.1388    0.1146 H   0  0  0  0  0  0  0  0  0  0  0  0
   -1.2731   -0.6752    1.5383 H   0  0  0  0  0  0  0  0  0  0  0  0
   -2.6765   -2.8257    1.3508 H   0  0  0  0  0  0  0  0  0  0  0  0
   -2.3737   -3.9341    0.0055 H   0  0  0  0  0  0  0  0  0  0  0  0
   -3.2164   -2.4093   -0.2822 H   0  0  0  0  0  0  0  0  0  0  0  0
    6.2376    3.2019    0.9901 H   0  0  0  0  0  0  0  0  0  0  0  0
    5.3077    4.6234    0.4879 H   0  0  0  0  0  0  0  0  0  0  0  0
    5.5702    4.2990    2.2057 H   0  0  0  0  0  0  0  0  0  0  0  0
   -0.8096   -2.2583   -1.0386 H   0  0  0  0  0  0  0  0  0  0  0  0
   -0.2653   -2.7317    0.5620 H   0  0  0  0  0  0  0  0  0  0  0  0
    3.2334    3.6509    1.5434 H   0  0  0  0  0  0  0  0  0  0  0  0
    4.1496    2.2341    2.0629 H   0  0  0  0  0  0  0  0  0  0  0  0
    3.6745    3.0775   -0.8466 H   0  0  0  0  0  0  0  0  0  0  0  0
    4.5957    1.6434   -0.3286 H   0  0  0  0  0  0  0  0  0  0  0  0
    2.1798   -0.2180    0.4500 H   0  0  0  0  0  0  0  0  0  0  0  0
  1  2  2  0  0  0  0
  1  3  1  0  0  0  0
  1 14  1  0  0  0  0
  2  5  1  0  0  0  0
  2 12  1  0  0  0  0
  3 11  2  0  0  0  0
  3 13  1  0  0  0  0
  4  5  1  0  0  0  0
  4 14  1  0  0  0  0
  4 15  1  0  0  0  0
  4 16  1  0  0  0  0
  5  8  1  0  0  0  0
  5 17  1  0  0  0  0
  6  8  1  0  0  0  0
  6 18  1  0  0  0  0
  6 19  1  0  0  0  0
  6 20  1  0  0  0  0
  7  9  1  0  0  0  0
  7 21  1  0  0  0  0
  7 22  1  0  0  0  0
  7 23  1  0  0  0  0
  8 24  1  0  0  0  0
  8 25  1  0  0  0  0
  9 10  1  0  0  0  0
  9 26  1  0  0  0  0
  9 27  1  0  0  0  0
 10 13  1  0  0  0  0
 10 28  1  0  0  0  0
 10 29  1  0  0  0  0
 12 30  1  0  0  0  0
M  END
$$$$
