
  -OEChem-05262117483D

 47 48  0     1  0  0  0  0  0999 V2000
    7.4375    1.9458    1.2685 C   0  0  0  0  0  0  0  0  0  0  0  0
    7.0277    2.3192   -0.0194 C   0  0  0  0  0  0  0  0  0  0  0  0
    6.5303    1.3009    2.1099 C   0  0  0  0  0  0  0  0  0  0  0  0
    5.7324    2.0507   -0.4559 C   0  0  0  0  0  0  0  0  0  0  0  0
    5.2238    1.0238    1.6854 C   0  0  0  0  0  0  0  0  0  0  0  0
   -0.9376    2.0417    3.8142 C   0  0  0  0  0  0  0  0  0  0  0  0
   -0.3195    2.8550    1.9760 C   0  0  0  0  0  0  0  0  0  0  0  0
    4.8244    1.4010    0.3958 C   0  0  0  0  0  0  0  0  0  0  0  0
   -1.0574   -2.1343   -1.3122 C   0  0  0  0  0  0  0  0  0  0  0  0
   -1.1903    0.1805   -2.2692 C   0  0  0  0  0  0  0  0  0  0  0  0
   -3.1917   -0.8465   -1.1991 C   0  0  0  0  0  0  0  0  0  0  0  0
    1.3255    0.3961   -0.1127 C   0  0  0  0  0  0  0  0  0  0  0  0
    0.2551   -0.3644    0.6830 C   0  0  0  0  0  0  0  0  0  0  0  0
   -1.6533    1.3045    0.4622 C   0  0  0  0  0  0  0  0  0  0  0  0
    2.6131    0.5093    0.6913 C   0  0  0  0  0  0  0  0  0  0  0  0
   -1.6539   -0.7266   -1.1096 C   0  0  0  0  0  0  0  0  0  0  0  0
   -1.2391   -0.1835    0.3102 C   0  0  1  0  0  0  0  0  0  0  0  0
   -0.1232    2.9956    3.2828 N   0  0  0  0  0  0  0  0  0  0  0  0
   -1.6200    1.3314    2.9189 N   0  0  0  0  0  0  0  0  0  0  0  0
   -1.2159    1.8728    1.7333 N   0  0  0  0  0  0  0  0  0  0  0  0
   -1.9883   -0.9682    1.2498 O   0  0  0  0  0  0  0  0  0  0  0  0
    3.5744    1.1821   -0.1236 O   0  0  0  0  0  0  0  0  0  0  0  0
    8.4480    2.1564    1.6071 H   0  0  0  0  0  0  0  0  0  0  0  0
    7.7223    2.8225   -0.6874 H   0  0  0  0  0  0  0  0  0  0  0  0
    6.8325    1.0065    3.1118 H   0  0  0  0  0  0  0  0  0  0  0  0
    5.4009    2.3331   -1.4511 H   0  0  0  0  0  0  0  0  0  0  0  0
    4.5392    0.5245    2.3613 H   0  0  0  0  0  0  0  0  0  0  0  0
   -1.0381    1.8639    4.8770 H   0  0  0  0  0  0  0  0  0  0  0  0
    0.1513    3.4327    1.1908 H   0  0  0  0  0  0  0  0  0  0  0  0
   -1.2923   -2.7855   -0.4661 H   0  0  0  0  0  0  0  0  0  0  0  0
   -1.4792   -2.5870   -2.2158 H   0  0  0  0  0  0  0  0  0  0  0  0
    0.0292   -2.1063   -1.4402 H   0  0  0  0  0  0  0  0  0  0  0  0
   -1.7164    1.1408   -2.2811 H   0  0  0  0  0  0  0  0  0  0  0  0
   -1.4190   -0.3134   -3.2195 H   0  0  0  0  0  0  0  0  0  0  0  0
   -0.1177    0.3796   -2.2599 H   0  0  0  0  0  0  0  0  0  0  0  0
   -3.6919    0.1194   -1.0734 H   0  0  0  0  0  0  0  0  0  0  0  0
   -3.4676   -1.2249   -2.1894 H   0  0  0  0  0  0  0  0  0  0  0  0
   -3.5813   -1.5288   -0.4428 H   0  0  0  0  0  0  0  0  0  0  0  0
    1.0002    1.4092   -0.3704 H   0  0  0  0  0  0  0  0  0  0  0  0
    1.5514   -0.1086   -1.0561 H   0  0  0  0  0  0  0  0  0  0  0  0
    0.4683   -1.4351    0.6650 H   0  0  0  0  0  0  0  0  0  0  0  0
    0.3381   -0.0765    1.7373 H   0  0  0  0  0  0  0  0  0  0  0  0
   -1.2163    1.9267   -0.3179 H   0  0  0  0  0  0  0  0  0  0  0  0
   -2.7396    1.3878    0.4068 H   0  0  0  0  0  0  0  0  0  0  0  0
    2.4380    1.0788    1.6143 H   0  0  0  0  0  0  0  0  0  0  0  0
    2.9859   -0.4865    0.9686 H   0  0  0  0  0  0  0  0  0  0  0  0
   -1.9617   -0.5102    2.1132 H   0  0  0  0  0  0  0  0  0  0  0  0
  1  2  1  0  0  0  0
  1  3  2  0  0  0  0
  1 23  1  0  0  0  0
  2  4  2  0  0  0  0
  2 24  1  0  0  0  0
  3  5  1  0  0  0  0
  3 25  1  0  0  0  0
  4  8  1  0  0  0  0
  4 26  1  0  0  0  0
  5  8  2  0  0  0  0
  5 27  1  0  0  0  0
  6 18  1  0  0  0  0
  6 19  2  0  0  0  0
  6 28  1  0  0  0  0
  7 18  2  0  0  0  0
  7 20  1  0  0  0  0
  7 29  1  0  0  0  0
  8 22  1  0  0  0  0
  9 16  1  0  0  0  0
  9 30  1  0  0  0  0
  9 31  1  0  0  0  0
  9 32  1  0  0  0  0
 10 16  1  0  0  0  0
 10 33  1  0  0  0  0
 10 34  1  0  0  0  0
 10 35  1  0  0  0  0
 11 16  1  0  0  0  0
 11 36  1  0  0  0  0
 11 37  1  0  0  0  0
 11 38  1  0  0  0  0
 12 13  1  0  0  0  0
 12 15  1  0  0  0  0
 12 39  1  0  0  0  0
 12 40  1  0  0  0  0
 13 17  1  0  0  0  0
 13 41  1  0  0  0  0
 13 42  1  0  0  0  0
 14 17  1  0  0  0  0
 14 20  1  0  0  0  0
 14 43  1  0  0  0  0
 14 44  1  0  0  0  0
 15 22  1  0  0  0  0
 15 45  1  0  0  0  0
 15 46  1  0  0  0  0
 16 17  1  0  0  0  0
 17 21  1  0  0  0  0
 19 20  1  0  0  0  0
 21 47  1  0  0  0  0
M  END
$$$$
