
  -OEChem-05262117483D

 30 30  0     1  0  0  0  0  0999 V2000
    0.4154    1.0728   -0.4319 C   0  0  0  0  0  0  0  0  0  0  0  0
    0.4844   -0.2783   -0.2829 C   0  0  0  0  0  0  0  0  0  0  0  0
    1.4835    1.9641   -0.8653 C   0  0  0  0  0  0  0  0  0  0  0  0
   -1.8884    0.0761    0.0622 C   0  0  0  0  0  0  0  0  0  0  0  0
   -0.7488   -0.9322    0.2944 C   0  0  1  0  0  0  0  0  0  0  0  0
   -2.2470   -3.0018    0.3778 C   0  0  0  0  0  0  0  0  0  0  0  0
    6.1426    1.8720   -2.4410 C   0  0  0  0  0  0  0  0  0  0  0  0
   -1.0393   -2.3264   -0.2807 C   0  0  0  0  0  0  0  0  0  0  0  0
    4.8956    1.1118   -1.9736 C   0  0  0  0  0  0  0  0  0  0  0  0
    3.7576    2.0630   -1.6401 C   0  0  0  0  0  0  0  0  0  0  0  0
    1.4217    3.1782   -0.9241 O   0  0  0  0  0  0  0  0  0  0  0  0
    1.5381   -1.0787   -0.5349 O   0  0  0  0  0  0  0  0  0  0  0  0
    2.6244    1.2640   -1.2092 O   0  0  0  0  0  0  0  0  0  0  0  0
   -1.1529    1.7686    0.0735 S   0  0  0  0  0  0  0  0  0  0  0  0
   -2.3468   -0.0954   -0.9178 H   0  0  0  0  0  0  0  0  0  0  0  0
   -2.6618    0.0227    0.8292 H   0  0  0  0  0  0  0  0  0  0  0  0
   -0.5692   -1.0302    1.3772 H   0  0  0  0  0  0  0  0  0  0  0  0
   -2.1063   -3.0918    1.4613 H   0  0  0  0  0  0  0  0  0  0  0  0
   -2.3961   -4.0092   -0.0235 H   0  0  0  0  0  0  0  0  0  0  0  0
   -3.1711   -2.4395    0.2075 H   0  0  0  0  0  0  0  0  0  0  0  0
    5.9350    2.4627   -3.3400 H   0  0  0  0  0  0  0  0  0  0  0  0
    6.5045    2.5576   -1.6669 H   0  0  0  0  0  0  0  0  0  0  0  0
    6.9546    1.1783   -2.6781 H   0  0  0  0  0  0  0  0  0  0  0  0
   -1.2036   -2.2366   -1.3618 H   0  0  0  0  0  0  0  0  0  0  0  0
   -0.1485   -2.9490   -0.1526 H   0  0  0  0  0  0  0  0  0  0  0  0
    5.1332    0.5111   -1.0876 H   0  0  0  0  0  0  0  0  0  0  0  0
    4.5651    0.4168   -2.7544 H   0  0  0  0  0  0  0  0  0  0  0  0
    4.0241    2.7525   -0.8341 H   0  0  0  0  0  0  0  0  0  0  0  0
    3.4545    2.6568   -2.5069 H   0  0  0  0  0  0  0  0  0  0  0  0
    2.2698   -0.5068   -0.8548 H   0  0  0  0  0  0  0  0  0  0  0  0
  1  2  2  0  0  0  0
  1  3  1  0  0  0  0
  1 14  1  0  0  0  0
  2  5  1  0  0  0  0
  2 12  1  0  0  0  0
  3 11  2  0  0  0  0
  3 13  1  0  0  0  0
  4  5  1  0  0  0  0
  4 14  1  0  0  0  0
  4 15  1  0  0  0  0
  4 16  1  0  0  0  0
  5  8  1  0  0  0  0
  5 17  1  0  0  0  0
  6  8  1  0  0  0  0
  6 18  1  0  0  0  0
  6 19  1  0  0  0  0
  6 20  1  0  0  0  0
  7  9  1  0  0  0  0
  7 21  1  0  0  0  0
  7 22  1  0  0  0  0
  7 23  1  0  0  0  0
  8 24  1  0  0  0  0
  8 25  1  0  0  0  0
  9 10  1  0  0  0  0
  9 26  1  0  0  0  0
  9 27  1  0  0  0  0
 10 13  1  0  0  0  0
 10 28  1  0  0  0  0
 10 29  1  0  0  0  0
 12 30  1  0  0  0  0
M  END
$$$$
