30
0 1 C10H16O3S
C                     0.026011330075     0.679780658527    -0.552600197421
C                     0.128326849448    -0.544970081181     0.038376677458
C                     1.210464442008     1.430961097257    -0.916005910423
C                    -2.255546194011    -0.463000113198    -0.380835603797
C                    -1.175675437869    -1.181358679401     0.451136399352
C                    -2.496366482131    -3.343576407650     0.796835440710
C                     2.750309396681     5.669991310198    -2.797428510292
C                    -1.195015266804    -2.708972232026     0.295105466600
C                     1.596863185277     4.754329380837    -2.371465515361
C                     2.110366468598     3.438509370465    -1.810707733731
O                     2.361116105604     0.993048090260    -0.750864885067
O                     1.270424093554    -1.183498126988     0.320759512098
O                     0.956042844337     2.641911276318    -1.437503860165
S                    -1.658478574106     1.252293783802    -0.728771736522
H                    -2.397154534180    -0.978077333588    -1.336811745346
H                    -3.214409214207    -0.401618848242     0.134951052729
H                    -1.318029722109    -0.934952587149     1.515603902288
H                    -2.670750095481    -3.103692413936     1.852172768767
H                    -2.458153166970    -4.433621923902     0.704954047072
H                    -3.365225804062    -2.995538921614     0.228051654784
H                     3.404825515889     5.908542983865    -1.951502411021
H                     3.366265351525     5.202310677489    -3.573802213463
H                     2.369307911703     6.613736779964    -3.199219838555
H                    -1.037690569857    -2.959713433948    -0.761284146215
H                    -0.342695865436    -3.123507301128     0.842274808269
H                     0.942364597710     4.546072456885    -3.225060725942
H                     0.980632518668     5.248587489151    -1.612236047836
H                     2.697598689739     2.881782691490    -2.547190264851
H                     2.735402601659     3.587597154248    -0.925039034202
H                     2.003685771705    -0.584999442569     0.014836816628
