
  -OEChem-05262117483D

 14 14  0     0  0  0  0  0  0999 V2000
    0.7817    0.1125    3.2545 C   0  0  0  0  0  0  0  0  0  0  0  0
   -1.6724    3.1921    1.1668 C   0  0  0  0  0  0  0  0  0  0  0  0
   -0.7832    2.2696    1.7195 C   0  0  0  0  0  0  0  0  0  0  0  0
   -2.9785    3.3160    1.6521 C   0  0  0  0  0  0  0  0  0  0  0  0
   -2.5096    1.5590    3.2825 C   0  0  0  0  0  0  0  0  0  0  0  0
   -1.2059    1.4515    2.7808 C   0  0  0  0  0  0  0  0  0  0  0  0
   -3.3636    2.4903    2.7039 C   0  0  0  0  0  0  0  0  0  0  0  0
   -0.3571    0.5094    3.3731 N   0  0  0  0  0  0  0  0  0  0  0  0
    1.8643   -0.3572    3.2391 O   0  0  0  0  0  0  0  0  0  0  0  0
   -4.6253    2.5940    3.1897 F   0  0  0  0  0  0  0  0  0  0  0  0
   -1.3447    3.8240    0.3463 H   0  0  0  0  0  0  0  0  0  0  0  0
    0.2292    2.1797    1.3367 H   0  0  0  0  0  0  0  0  0  0  0  0
   -3.6831    4.0277    1.2346 H   0  0  0  0  0  0  0  0  0  0  0  0
   -2.8448    0.9318    4.1014 H   0  0  0  0  0  0  0  0  0  0  0  0
  1  8  2  0  0  0  0
  1  9  2  0  0  0  0
  2  3  1  0  0  0  0
  2  4  2  0  0  0  0
  2 11  1  0  0  0  0
  3  6  2  0  0  0  0
  3 12  1  0  0  0  0
  4  7  1  0  0  0  0
  4 13  1  0  0  0  0
  5  6  1  0  0  0  0
  5  7  2  0  0  0  0
  5 14  1  0  0  0  0
  6  8  1  0  0  0  0
  7 10  1  0  0  0  0
M  END
$$$$
