14
0 1 C7FH4NO
C                     0.781674307245     0.112515420693     3.254504696288
C                    -1.672415593680     3.192069204493     1.166819900670
C                    -0.783233363851     2.269575771971     1.719513466118
C                    -2.978455266176     3.316030797046     1.652142576609
C                    -2.509627086227     1.558955459372     3.282503277292
C                    -1.205851858268     1.451533141786     2.780772239537
C                    -3.363565478812     2.490307053812     2.703882245774
N                    -0.357122268094     0.509392841128     3.373082577485
O                     1.864303928775    -0.357231410894     3.239082297450
F                    -4.625285088802     2.594020871047     3.189651452027
H                    -1.344748075272     3.824010089425     0.346346664304
H                     0.229167118010     2.179662864640     1.336716445823
H                    -3.683138057010     4.027718565914     1.234559822490
H                    -2.844819583948     0.931831441751     4.101392675683
