18
0 1 BrC8H6N3
C                     1.428867418206     0.499223261663    -0.231208106886
C                     0.729467906185    -1.838477429717    -1.791277494870
C                    -1.664752123400    -2.972000325518    -1.382252430556
C                    -0.168818690551    -1.320165370204    -0.847760253943
C                    -0.748530282216    -3.472026412510    -2.320544692124
C                    -1.014751595042     0.823589497458     0.366906087956
C                    -0.419746808447    -0.054155249600     1.415115033853
C                     0.140018231444    -0.116914391468    -0.015538484442
N                     2.465927065950     1.001067585676    -0.399612398763
N                    -1.365632403148    -1.899257152478    -0.653765089743
N                     0.430528847032    -2.918498842611    -2.525908493139
Br                   -1.218307636744    -5.020176258452    -3.350208612090
H                     1.701485874955    -1.383184078786    -1.961440697711
H                    -2.632189169102    -3.441703526443    -1.226839164029
H                    -1.978303532791     0.541091529733    -0.043168371809
H                    -0.788026740986     1.884159906578     0.378577255382
H                     0.226478506189     0.387615305801     2.165849714867
H                    -0.979142239224    -0.932825569934     1.717447007943
