29
0 1 BrC13F4H8N3
C                    -0.335182575648     0.311896852173    -5.759805557730
C                    -0.622484530511     1.263966454092    -3.581181425621
C                    -1.247395767166     1.260856781256    -6.232425879780
C                    -1.512700010594     2.167958607763    -4.155632567178
C                    -0.003044943880     0.299470675870    -4.396600866164
C                     1.580504650787    -2.049641034127    -0.620117108089
C                     1.887461268567    -3.344163625017    -0.174049332106
C                     1.186823942256    -1.120422600649     0.357141794733
C                     1.802981503034    -3.713213891404     1.160983054869
C                     1.083507463021    -1.493742940828     1.696307801864
C                     1.389209824976    -2.788349020006     2.122168316337
C                     0.944739095231    -0.685619763915    -3.823971390695
C                     1.918568903270    -1.431459063596    -4.705541707979
N                    -1.833966479751     2.183663491978    -5.461238092107
N                     0.879614287810    -0.849329259080    -2.543213069479
N                     1.741910923310    -1.745771223436    -1.968757742130
F                     2.274539665878    -4.261067866673    -1.095060047126
F                     0.933296945118     0.158152996868     0.036213744986
F                     2.107576191251    -4.972016877696     1.506616277166
F                     0.701046306210    -0.565858044504     2.584767217957
Br                    1.258610805004    -3.274698241525     3.945610583223
H                     0.082061012922    -0.408056770561    -6.456817877270
H                    -0.401906927024     1.300342931653    -2.519946227047
H                    -1.516780776529     1.274740872525    -7.287691520200
H                    -1.993448065966     2.924697783210    -3.537722561983
H                     2.919439190514    -1.416876622453    -4.259198876266
H                     1.626231234569    -2.481862195171    -4.837954816222
H                     1.996854226210    -0.983619776940    -5.695420307211
H                     2.089166433598    -2.516719320292    -2.533958871336
