
  -OEChem-05262117483D

 21 21  0     0  0  0  0  0  0999 V2000
    3.1324   -0.4005   -0.0788 C   0  0  0  0  0  0  0  0  0  0  0  0
    2.0552    0.2030    0.5777 C   0  0  0  0  0  0  0  0  0  0  0  0
    3.5203   -1.7031    0.2434 C   0  0  0  0  0  0  0  0  0  0  0  0
    1.7307   -1.7981    1.8978 C   0  0  0  0  0  0  0  0  0  0  0  0
    1.3493   -0.4876    1.5692 C   0  0  0  0  0  0  0  0  0  0  0  0
    2.8060   -2.3824    1.2328 C   0  0  0  0  0  0  0  0  0  0  0  0
   -1.1429   -0.4955    1.9070 C   0  0  0  0  0  0  0  0  0  0  0  0
    0.1721    0.1528    2.2832 C   0  0  0  0  0  0  0  0  0  0  0  0
   -1.7490   -1.4176    2.5726 N   0  0  0  0  0  0  0  0  0  0  0  0
   -1.6944   -0.1110    0.6840 N   0  0  0  0  0  0  0  0  0  0  0  0
   -0.9858   -1.8271    3.7092 O   0  0  0  0  0  0  0  0  0  0  0  0
    3.3251   -4.1755    1.6905 Br  0  0  0  0  0  0  0  0  0  0  0  0
    3.6756    0.1440   -0.8466 H   0  0  0  0  0  0  0  0  0  0  0  0
    1.7642    1.2174    0.3156 H   0  0  0  0  0  0  0  0  0  0  0  0
    4.3551   -2.1786   -0.2609 H   0  0  0  0  0  0  0  0  0  0  0  0
    1.1817   -2.3431    2.6586 H   0  0  0  0  0  0  0  0  0  0  0  0
    0.2956    0.0733    3.3648 H   0  0  0  0  0  0  0  0  0  0  0  0
    0.1253    1.2168    2.0270 H   0  0  0  0  0  0  0  0  0  0  0  0
   -1.6630    0.8880    0.5095 H   0  0  0  0  0  0  0  0  0  0  0  0
   -2.6228   -0.4958    0.5340 H   0  0  0  0  0  0  0  0  0  0  0  0
   -1.5759   -2.4804    4.1166 H   0  0  0  0  0  0  0  0  0  0  0  0
  1  2  1  0  0  0  0
  1  3  2  0  0  0  0
  1 13  1  0  0  0  0
  2  5  2  0  0  0  0
  2 14  1  0  0  0  0
  3  6  1  0  0  0  0
  3 15  1  0  0  0  0
  4  5  1  0  0  0  0
  4  6  2  0  0  0  0
  4 16  1  0  0  0  0
  5  8  1  0  0  0  0
  6 12  1  0  0  0  0
  7  8  1  0  0  0  0
  7  9  2  0  0  0  0
  7 10  1  0  0  0  0
  8 17  1  0  0  0  0
  8 18  1  0  0  0  0
  9 11  1  0  0  0  0
 10 19  1  0  0  0  0
 10 20  1  0  0  0  0
 11 21  1  0  0  0  0
M  END
$$$$
