25
0 1 BrC10FH10O3
C                    -4.019140005359     0.185543066414    -1.142835393397
C                    -4.034630657473    -1.164750706649    -0.780026364743
C                    -2.266421791127    -1.578835308358    -2.400537860427
C                    -2.236545086117    -0.223047855624    -2.755277915597
C                    -3.147153563620     0.636995945488    -2.123137869530
C                    -3.156261179675    -2.031765655497    -1.428721158917
C                     0.480263678304     0.286949358796    -0.600579684384
C                     1.151296106187    -0.545186821583    -1.691782611740
C                     0.405796622944     1.431534995234    -2.611666639685
C                    -0.650024463044     1.368399814747    -3.713561365036
O                    -0.217994022758     1.296163045535    -1.340943873222
O                     1.394189615366     0.418701360658    -2.723800936367
O                    -1.364979398470     0.123234884073    -3.749894815199
F                    -3.188247761850     1.950694674926    -2.465839434204
Br                   -3.156504442439    -3.895818701356    -0.971793846346
H                    -4.691772866215     0.899201327170    -0.676666842234
H                    -4.718730550354    -1.525400940997    -0.020165800476
H                    -1.586568667073    -2.256142788399    -2.905419751590
H                    -0.252869372743    -0.272825253911    -0.014964290126
H                     1.214602242663     0.753366258116     0.068166348692
H                     2.111714399373    -0.968752559081    -1.389750723462
H                     0.494478669375    -1.341977097017    -2.055988615313
H                     0.920636708443     2.401782913860    -2.684776000951
H                    -0.145443747799     1.421226295080    -4.680428523925
H                    -1.327362873492     2.218314343823    -3.613666572105
