21
0 1 BrC8H9N2O
C                     1.976279133621    -0.501630520545    -0.068219017700
C                     0.861811337664    -0.011731604755     0.612807085852
C                     2.921443136985    -1.301832433207     0.585842009107
C                     1.609329102789    -1.119662104204     2.630399079018
C                     0.668506082962    -0.320550381264     1.968663416292
C                     2.721207004933    -1.598051135197     1.932506044555
C                    -0.412850163571     1.742676732694     2.860117774310
C                    -0.530224611123     0.241028027217     2.710852917250
N                    -1.038249206363     2.626844294063     2.162923306683
N                     0.435376628876     2.187630791736     3.876912003968
O                    -1.927644895695     2.020355430645     1.222151617045
Br                    4.002912188224    -2.688443669989     2.857370429110
H                     2.119231187022    -0.262663426892    -1.118825014650
H                     0.134884932037     0.615496168641     0.103749123939
H                     3.789809657346    -1.683884001566     0.059225465792
H                     1.473489693818    -1.374850199190     3.677538896445
H                    -1.450184083864     0.015182993775     2.170380768275
H                    -0.600098852803    -0.199440778705     3.709388315887
H                     1.292337697564     1.645506170502     3.944286026206
H                     0.631466276475     3.182555831228     3.809052810897
H                    -2.375528553860     2.796204581614     0.850105503839
