
  -OEChem-05262117483D

 21 21  0     0  0  0  0  0  0999 V2000
    1.9763   -0.5016   -0.0682 C   0  0  0  0  0  0  0  0  0  0  0  0
    0.8618   -0.0117    0.6128 C   0  0  0  0  0  0  0  0  0  0  0  0
    2.9214   -1.3018    0.5858 C   0  0  0  0  0  0  0  0  0  0  0  0
    1.6093   -1.1197    2.6304 C   0  0  0  0  0  0  0  0  0  0  0  0
    0.6685   -0.3206    1.9687 C   0  0  0  0  0  0  0  0  0  0  0  0
    2.7212   -1.5981    1.9325 C   0  0  0  0  0  0  0  0  0  0  0  0
   -0.4129    1.7427    2.8601 C   0  0  0  0  0  0  0  0  0  0  0  0
   -0.5302    0.2410    2.7109 C   0  0  0  0  0  0  0  0  0  0  0  0
   -1.0382    2.6268    2.1629 N   0  0  0  0  0  0  0  0  0  0  0  0
    0.4354    2.1876    3.8769 N   0  0  0  0  0  0  0  0  0  0  0  0
   -1.9276    2.0204    1.2222 O   0  0  0  0  0  0  0  0  0  0  0  0
    4.0029   -2.6884    2.8574 Br  0  0  0  0  0  0  0  0  0  0  0  0
    2.1192   -0.2627   -1.1188 H   0  0  0  0  0  0  0  0  0  0  0  0
    0.1349    0.6155    0.1037 H   0  0  0  0  0  0  0  0  0  0  0  0
    3.7898   -1.6839    0.0592 H   0  0  0  0  0  0  0  0  0  0  0  0
    1.4735   -1.3749    3.6775 H   0  0  0  0  0  0  0  0  0  0  0  0
   -1.4502    0.0152    2.1704 H   0  0  0  0  0  0  0  0  0  0  0  0
   -0.6001   -0.1994    3.7094 H   0  0  0  0  0  0  0  0  0  0  0  0
    1.2923    1.6455    3.9443 H   0  0  0  0  0  0  0  0  0  0  0  0
    0.6315    3.1826    3.8091 H   0  0  0  0  0  0  0  0  0  0  0  0
   -2.3755    2.7962    0.8501 H   0  0  0  0  0  0  0  0  0  0  0  0
  1  2  1  0  0  0  0
  1  3  2  0  0  0  0
  1 13  1  0  0  0  0
  2  5  2  0  0  0  0
  2 14  1  0  0  0  0
  3  6  1  0  0  0  0
  3 15  1  0  0  0  0
  4  5  1  0  0  0  0
  4  6  2  0  0  0  0
  4 16  1  0  0  0  0
  5  8  1  0  0  0  0
  6 12  1  0  0  0  0
  7  8  1  0  0  0  0
  7  9  2  0  0  0  0
  7 10  1  0  0  0  0
  8 17  1  0  0  0  0
  8 18  1  0  0  0  0
  9 11  1  0  0  0  0
 10 19  1  0  0  0  0
 10 20  1  0  0  0  0
 11 21  1  0  0  0  0
M  END
$$$$
