
  -OEChem-05262117483D

 25 26  0     0  0  0  0  0  0999 V2000
   -0.7391   -0.8604   -7.3496 C   0  0  0  0  0  0  0  0  0  0  0  0
   -0.0594   -2.0778   -7.4527 C   0  0  0  0  0  0  0  0  0  0  0  0
   -0.0468   -2.2510   -5.0238 C   0  0  0  0  0  0  0  0  0  0  0  0
   -0.7241   -1.0321   -4.9186 C   0  0  0  0  0  0  0  0  0  0  0  0
   -1.0716   -0.3608   -6.0981 C   0  0  0  0  0  0  0  0  0  0  0  0
    0.2709   -2.7603   -6.2819 C   0  0  0  0  0  0  0  0  0  0  0  0
    2.8563    1.3043   -3.7590 C   0  0  0  0  0  0  0  0  0  0  0  0
    2.3538    2.4685   -2.9023 C   0  0  0  0  0  0  0  0  0  0  0  0
    0.8523    0.7001   -2.9050 C   0  0  0  0  0  0  0  0  0  0  0  0
   -0.6267    0.7114   -3.2629 C   0  0  0  0  0  0  0  0  0  0  0  0
    1.6443    0.6128   -4.0749 O   0  0  0  0  0  0  0  0  0  0  0  0
    1.1875    1.9298   -2.2572 O   0  0  0  0  0  0  0  0  0  0  0  0
   -1.0862   -0.5887   -3.6715 O   0  0  0  0  0  0  0  0  0  0  0  0
   -1.7583    0.8087   -6.0191 F   0  0  0  0  0  0  0  0  0  0  0  0
    1.1950   -4.4379   -6.4031 Br  0  0  0  0  0  0  0  0  0  0  0  0
   -1.0279   -0.3015   -8.2346 H   0  0  0  0  0  0  0  0  0  0  0  0
    0.1983   -2.4837   -8.4246 H   0  0  0  0  0  0  0  0  0  0  0  0
    0.2209   -2.7753   -4.1131 H   0  0  0  0  0  0  0  0  0  0  0  0
    3.3294    1.6076   -4.6943 H   0  0  0  0  0  0  0  0  0  0  0  0
    3.5360    0.6501   -3.1956 H   0  0  0  0  0  0  0  0  0  0  0  0
    3.0695    2.7848   -2.1382 H   0  0  0  0  0  0  0  0  0  0  0  0
    2.0666    3.3303   -3.5157 H   0  0  0  0  0  0  0  0  0  0  0  0
    1.0833   -0.1367   -2.2266 H   0  0  0  0  0  0  0  0  0  0  0  0
   -0.8137    1.4685   -4.0271 H   0  0  0  0  0  0  0  0  0  0  0  0
   -1.2016    0.9514   -2.3669 H   0  0  0  0  0  0  0  0  0  0  0  0
  1  2  1  0  0  0  0
  1  5  2  0  0  0  0
  1 16  1  0  0  0  0
  2  6  2  0  0  0  0
  2 17  1  0  0  0  0
  3  4  2  0  0  0  0
  3  6  1  0  0  0  0
  3 18  1  0  0  0  0
  4  5  1  0  0  0  0
  4 13  1  0  0  0  0
  5 14  1  0  0  0  0
  6 15  1  0  0  0  0
  7  8  1  0  0  0  0
  7 11  1  0  0  0  0
  7 19  1  0  0  0  0
  7 20  1  0  0  0  0
  8 12  1  0  0  0  0
  8 21  1  0  0  0  0
  8 22  1  0  0  0  0
  9 10  1  0  0  0  0
  9 11  1  0  0  0  0
  9 12  1  0  0  0  0
  9 23  1  0  0  0  0
 10 13  1  0  0  0  0
 10 24  1  0  0  0  0
 10 25  1  0  0  0  0
M  END
$$$$
