21
0 1 BrC8H9N2O
C                     3.132353762938    -0.400513492301    -0.078765524800
C                     2.055155965555     0.202977285879     0.577700511885
C                     3.520324607032    -1.703145088932     0.243382913431
C                     1.730687127590    -1.798137996942     1.897805375967
C                     1.349269772826    -0.487640212825     1.569236070799
C                     2.805983961679    -2.382357919145     1.232823819608
C                    -1.142858539608    -0.495531059969     1.906975710106
C                     0.172083015427     0.152815286887     2.283184823385
N                    -1.748978783473    -1.417576342895     2.572563396626
N                    -1.694377030018    -0.110955131104     0.683995094626
O                    -0.985767511442    -1.827070200008     3.709220778382
Br                    3.325118923504    -4.175456720263     1.690492599411
H                     3.675579432611     0.144043364979    -0.846611833560
H                     1.764165751369     1.217415957269     0.315581497216
H                     4.355128861864    -2.178633112247    -0.260925132673
H                     1.181698935055    -2.343146506972     2.658646860154
H                     0.295576667156     0.073342141029     3.364751386109
H                     0.125266824018     1.216831459872     2.026964975717
H                    -1.662994329000     0.887974023005     0.509498210894
H                    -2.622808825696    -0.495795421029     0.533987045216
H                    -1.575894940479    -2.480384256139     4.116554904545
