31
0 1 C13ClH15O2
C                     1.205791008180     1.963748571821    -0.572441813354
C                     0.526435786963     3.163763097444    -0.365719905488
C                    -1.237706162015     1.922014725345     0.756200483630
C                     0.704353012888     0.734083469193    -0.130234623253
C                    -0.534869030164     0.728462951036     0.535049130336
C                    -0.697958493684     3.121340526829     0.307466913947
C                    -2.720944522453    -2.324708295460    -0.534957381592
C                    -2.722962560913    -2.831013615110     0.938420634668
C                    -1.255707289026    -1.951282193925    -0.852841159514
C                    -1.256043004340    -2.740925735334     1.413607042847
C                     0.908487455866    -1.660380246497     0.546032441474
C                     1.463298486880    -0.563941999660    -0.356172432043
C                    -0.613344581728    -1.679137334904     0.519188535726
O                    -1.119886041416    -0.405089382894     1.019982601729
O                     2.863309194442    -0.461763156176    -0.064789234985
Cl                   -1.581318271332     4.615530013846     0.585037310490
H                     2.163256995248     1.999697405403    -1.088077866046
H                     0.933280344829     4.107595145894    -0.712308737158
H                    -2.189979322531     1.887535395710     1.274638788950
H                    -3.098765440723    -3.077539645376    -1.232454083491
H                    -3.362982076813    -1.445730316788    -0.633770647432
H                    -3.359101239320    -2.193124698954     1.556933854257
H                    -3.108097851257    -3.850899091654     1.024963640978
H                    -0.728910153405    -2.791821935955    -1.320178218627
H                    -1.171816238432    -1.095121870900    -1.528066544193
H                    -1.153951834937    -2.482695707487     2.470912312158
H                    -0.733789871093    -3.689601655007     1.247453410440
H                     1.304477673664    -2.630597763893     0.233762736329
H                     1.251529032773    -1.472164173698     1.569113195851
H                     1.339398993273    -0.866017074090    -1.406959534602
H                     3.282206218373     0.098243135605    -0.735810915279
