54
0 1 C19H26N4O4S
C                    -3.072032768025    -1.118405647002    -1.141680712848
C                    -1.958888671819    -0.209069586686    -0.977714445024
C                    -0.959309688096    -0.760914928692    -0.222433660803
C                    -4.309786016229    -0.895023070917    -1.874110540300
C                    -2.880019181976    -2.330886576981    -0.507998522679
C                    -4.971805127435    -3.241119672046    -1.282270815520
C                     1.846897962081     1.287559655985    -1.222015316871
C                    -7.378945685382    -0.653750299240    -2.014874821650
C                    -7.756294757500    -2.077078353906    -1.673591160853
C                     2.503488794628    -0.187203010655    -2.919881884293
C                     1.774677020559    -0.983946358655    -1.818008378948
C                    -6.517147635357    -1.798547775899    -2.487097366483
C                    -6.472456921257    -2.162526751865    -3.955967708384
C                    -1.497679177883     1.115347436650    -3.083557522701
C                    -5.526817621506    -3.809754764467     3.209629219965
C                    -1.873695866454     1.165476039268    -1.592172442063
C                     0.370358418911    -0.157948136494     0.149438035594
C                    -3.560036356258    -4.608799435363     0.198991073328
C                    -3.838338038663    -4.446478808121     1.690730575694
N                    -5.238254716726    -1.966805332227    -1.799698106611
N                    -3.780046274308    -3.368167870600    -0.549723542478
N                     2.786474737827     1.076513878172    -2.233778203695
N                     1.205941929521     0.082004496796    -1.009837734840
O                    -4.574565612202     0.118303576898    -2.515049543938
O                    -5.723552272623    -4.190917457989    -1.445176532837
O                     1.634074297011     2.340629433235    -0.630898987921
O                    -5.190144581202    -4.065376033333     1.854727736883
S                    -1.339438983195    -2.404678703851     0.296007777246
H                    -7.937433217401    -0.118537526143    -2.776756816403
H                    -6.989420229770    -0.025582680659    -1.221510661732
H                    -7.619849075490    -2.411473815496    -0.650930393261
H                    -8.582853415370    -2.551305559599    -2.193925608662
H                     3.420228832596    -0.681961561857    -3.249858202872
H                     1.846493628358    -0.041307366686    -3.787737923275
H                     0.996435305959    -1.638362458078    -2.221314498143
H                     2.476744871623    -1.594839077155    -1.230282816478
H                    -5.748233071270    -1.533918577380    -4.483078466171
H                    -7.453617172482    -2.010102992612    -4.415446501793
H                    -6.198305972598    -3.214876721106    -4.079674359231
H                    -0.534088335026     0.614817874584    -3.222241634896
H                    -1.416494239001     2.129975447646    -3.486990316337
H                    -2.259818516805     0.581306822825    -3.656268946552
H                    -6.578793922843    -3.517919443692     3.227285365768
H                    -4.917878762854    -2.993737570638     3.626753034565
H                    -5.391313705594    -4.706058856992     3.833235008192
H                    -2.841924783518     1.661659199022    -1.490303437128
H                    -1.132745492144     1.760772301962    -1.051685359707
H                     0.233038218643     0.813671954515     0.632066993153
H                     0.892113263022    -0.805525430110     0.869570530810
H                    -2.527686729654    -4.941834567555     0.046191804635
H                    -4.233931421180    -5.352504801483    -0.223685768168
H                    -3.171315207672    -3.693743646746     2.137536749682
H                    -3.634361957258    -5.409172177012     2.188221798012
H                     3.015777547458     1.899505378924    -2.777793395182
