27
0 1 C11H12N2OS
C                    -1.476865706836     0.865912556299    -1.570273332217
C                    -0.961131237766    -0.093699249650    -0.686844348773
C                    -2.534264682846     0.541474410612    -2.432943646205
C                    -1.474816012995    -1.397628325300    -0.642133600024
C                    -3.048742662964    -0.752420269183    -2.396201422523
C                    -2.517993711309    -1.698140601841    -1.514036569350
C                    -6.028371458981     0.269014273101    -3.037156132140
C                    -6.428185373718     2.070205278584    -4.355893925108
C                    -3.987154354536    -2.876559564251    -2.777235764113
C                    -7.294282909202     2.450936316964    -3.133457901772
C                    -4.226715285563    -1.388374984425    -3.106954733230
N                    -5.550482410492     0.957273498858    -4.006252042563
N                    -5.528307027808    -0.931937615867    -2.590578795546
O                    -3.143045301637    -2.920293404243    -1.593920129178
S                    -7.537082886309     0.865460919425    -2.241997045457
H                    -1.052535758068     1.865973705129    -1.585817076680
H                    -0.141529238760     0.173668509727    -0.024641152690
H                    -2.955762411681     1.273876985437    -3.114430514937
H                    -1.077113679373    -2.146921771014     0.035596496812
H                    -7.070606687391     1.772280424598    -5.196331789942
H                    -5.832686504945     2.927878482211    -4.684716468031
H                    -4.905944874818    -3.423544461202    -2.560247982404
H                    -3.447025641571    -3.369499275170    -3.592337507826
H                    -6.778154716413     3.153200349895    -2.473553038733
H                    -8.263613229254     2.865196885971    -3.416848691995
H                    -4.235876861818    -1.203778848879    -4.180760652862
H                    -5.660714362727    -1.092460262992    -1.596675512579
