27
0 1 C11H12N2OS
C                     0.463386259100     0.073411786042     2.177045458904
C                     0.015026981750    -0.542228239424     0.999462919285
C                     0.257999063162    -0.548529575813     3.417278103426
C                    -0.639934720544    -1.781001153902     1.025791263552
C                    -0.394804157041    -1.774951716449     3.449789497100
C                    -0.831253825006    -2.376859042954     2.270488274570
C                     1.502511015617    -3.687835690112     4.946770642616
C                     2.991086720903    -4.559537423928     3.477757475786
C                    -1.432296153150    -3.873470415310     3.882642532776
C                     3.618251522211    -5.057455395916     4.801935797867
C                    -0.737819793682    -2.679480757442     4.611253410009
N                     1.645548462345    -4.060509280487     3.732580253285
N                     0.411757370297    -3.025041778800     5.450718107368
O                    -1.442294654914    -3.584415328099     2.461840516108
S                     2.877956422750    -3.978612682924     6.088857594225
H                     0.972544526554     1.031750560959     2.126732321609
H                     0.180576262032    -0.052486124134     0.043052159201
H                     0.617921567718    -0.091024597524     4.335786529921
H                    -0.978856605241    -2.268342519190     0.116662291445
H                     3.598111688461    -3.748869137470     3.051833333046
H                     2.957979478982    -5.368820170987     2.741685067589
H                    -0.884690732418    -4.804545366488     4.034145539557
H                    -2.471922813084    -3.994291050070     4.199889430050
H                     3.350475026357    -6.096359893002     5.011709026198
H                     4.704700448509    -4.953130283751     4.818494636515
H                    -1.443085986515    -2.187473070469     5.288407153486
H                     0.232712578863    -3.152118076664     6.437902850633
