64
-1 1 C30H28NO5
C                    -7.400420437439    -2.281100976447     9.707722803248
C                    -7.429709131316    -3.615507293865     9.228985711236
C                     5.402818478538     3.311838776894     0.027627204438
C                     6.153109052870     2.834381785722     1.119313768014
C                    -6.494920731980    -1.377153633503     9.185399035426
C                    -6.551232997851    -4.016759078335     8.240093074983
C                     4.234294939465     2.655162683314    -0.370360202239
C                     1.528905041359     0.575913506904    -0.599988482313
C                     5.759376151591     1.695388150081     1.829210081520
C                     0.557955708923    -0.392259169207    -0.358684425679
C                    -4.630965964912    -0.859878443818     7.617975872833
C                    -4.697962805509    -3.492297418707     6.663191231983
C                     1.901329876111    -1.371772261111     1.440293904674
C                    -5.581159829414    -1.761395810302     8.167024137564
C                    -5.608944379404    -3.109307645613     7.686290809194
C                     3.816161518248     1.512613093237     0.322818069657
C                     2.680056893839     0.622277495219     0.205679232966
C                     4.594968293565     1.031731759293     1.423988044483
C                     2.835506869389    -0.359025961942     1.218840428235
C                     0.732894381541    -1.341101435736     0.679198590054
C                    -3.745251084088    -1.237536264380     6.628948534521
C                    -3.795843076606    -2.591098807407     6.130703430474
C                     2.300488759421    -1.503606661157     4.565314488580
C                    -1.519645207479    -0.605203756562     5.841609416987
C                     3.513392369697    -0.531918496791     4.380751426609
C                    -1.608128733080    -3.428486912848     2.552825726972
C                    -1.484928848788    -4.252416194994     3.848029485351
C                     4.397448586888    -0.827341014625     3.154906803522
C                    -0.226790482614    -2.949539255933     2.141755953667
C                    -2.736557186956    -4.228205168124     4.711726260250
N                     3.999043315427    -0.111977348013     1.938112618892
O                     1.252622132970    -1.000986558061     5.049863899028
O                     2.499620630929    -2.706754095788     4.217409349764
O                    -2.917341711971    -0.289417504808     6.121470457629
O                    -0.315987333802    -2.193156423128     0.918186438037
O                    -2.928344666167    -2.870350664537     5.125883226943
H                    -8.093072648977    -1.971812147698    10.487021194777
H                    -8.145042931166    -4.322325701044     9.643059078513
H                     5.733473974899     4.201179960973    -0.503891398426
H                     7.054752712788     3.362263538829     1.422073814717
H                    -6.470007746248    -0.352549134515     9.551023551430
H                    -6.572055787709    -5.041111847725     7.872638209093
H                     3.651633454730     3.031325176082    -1.208843011284
H                     1.374669829138     1.310643847610    -1.387578128214
H                     6.343121041995     1.345889859772     2.675882871003
H                    -0.364248602338    -0.418879518749    -0.932308235710
H                    -4.579042128607     0.164498419010     7.977470886871
H                    -4.741922281372    -4.507606152683     6.283012987992
H                     2.066279254648    -2.097613636494     2.227028516622
H                    -0.975444068411     0.329141319274     5.968233829263
H                    -1.394154964843    -0.965649590920     4.824648819305
H                    -1.134680947209    -1.349101060548     6.540090134493
H                     4.133119913399    -0.651314427746     5.279409563956
H                     3.163796213354     0.504371235154     4.364430924085
H                    -2.076277872832    -4.017781506916     1.754454471119
H                    -2.239714720023    -2.551645386620     2.726144958573
H                    -0.654581017501    -3.866056706090     4.449905812655
H                    -1.245303807942    -5.297523786720     3.615362712067
H                     4.358711619127    -1.904238763238     2.962646615601
H                     5.441345362947    -0.562083021286     3.342014070145
H                     0.179786142247    -2.327365627617     2.943069048512
H                     0.463079500363    -3.791992190542     1.999340665878
H                    -2.606240382482    -4.864174541574     5.596938184594
H                    -3.625529883776    -4.572068520197     4.162397886146
