
  -OEChem-05262117483D

 39 41  0     1  0  0  0  0  0999 V2000
    0.1589    3.4081    0.4350 C   0  0  0  0  0  0  0  0  0  0  0  0
    0.5992    3.0935   -1.9150 C   0  0  0  0  0  0  0  0  0  0  0  0
    0.8931    4.5964    0.4256 C   0  0  0  0  0  0  0  0  0  0  0  0
    1.3407    4.2791   -1.9442 C   0  0  0  0  0  0  0  0  0  0  0  0
   -0.1543   -0.2897   -4.7295 C   0  0  0  0  0  0  0  0  0  0  0  0
   -0.2824   -1.6215   -3.1080 C   0  0  0  0  0  0  0  0  0  0  0  0
    0.0056    2.6367   -0.7281 C   0  0  0  0  0  0  0  0  0  0  0  0
    1.4758    5.0081   -0.7687 C   0  0  0  0  0  0  0  0  0  0  0  0
    2.1300    0.6889    1.1939 C   0  0  0  0  0  0  0  0  0  0  0  0
    1.7622   -0.7467    1.5251 C   0  0  0  0  0  0  0  0  0  0  0  0
    0.7087    0.2382    1.0373 C   0  0  0  0  0  0  0  0  0  0  0  0
   -1.1132   -0.1272    2.5840 C   0  0  0  0  0  0  0  0  0  0  0  0
   -0.7845    1.3426   -0.6965 C   0  0  0  0  0  0  0  0  0  0  0  0
    1.0694   -0.2413   -1.4492 C   0  0  0  0  0  0  0  0  0  0  0  0
    0.0419    0.0865   -0.3370 C   0  0  1  0  0  0  0  0  0  0  0  0
   -0.6725   -1.5004   -4.3702 N   0  0  0  0  0  0  0  0  0  0  0  0
    0.5280    0.3330   -3.7755 N   0  0  0  0  0  0  0  0  0  0  0  0
    0.4374   -0.5391   -2.7268 N   0  0  0  0  0  0  0  0  0  0  0  0
   -0.9108   -0.9981   -0.2788 O   0  0  0  0  0  0  0  0  0  0  0  0
   -0.1281    0.7581    2.0453 O   0  0  0  0  0  0  0  0  0  0  0  0
    2.1952    6.1633   -0.7866 F   0  0  0  0  0  0  0  0  0  0  0  0
   -0.2883    3.0646    1.3620 H   0  0  0  0  0  0  0  0  0  0  0  0
    0.4926    2.5131   -2.8264 H   0  0  0  0  0  0  0  0  0  0  0  0
    1.0146    5.1981    1.3215 H   0  0  0  0  0  0  0  0  0  0  0  0
    1.8026    4.6372   -2.8595 H   0  0  0  0  0  0  0  0  0  0  0  0
   -0.2762    0.1438   -5.7139 H   0  0  0  0  0  0  0  0  0  0  0  0
   -0.5033   -2.4453   -2.4454 H   0  0  0  0  0  0  0  0  0  0  0  0
    2.3134    1.3625    2.0235 H   0  0  0  0  0  0  0  0  0  0  0  0
    2.7282    0.8841    0.3115 H   0  0  0  0  0  0  0  0  0  0  0  0
    2.1227   -1.5379    0.8737 H   0  0  0  0  0  0  0  0  0  0  0  0
    1.7169   -1.0167    2.5754 H   0  0  0  0  0  0  0  0  0  0  0  0
   -1.4858    0.3521    3.4923 H   0  0  0  0  0  0  0  0  0  0  0  0
   -0.6710   -1.0970    2.8503 H   0  0  0  0  0  0  0  0  0  0  0  0
   -1.9388   -0.2894    1.8850 H   0  0  0  0  0  0  0  0  0  0  0  0
   -1.2548    1.1586   -1.6662 H   0  0  0  0  0  0  0  0  0  0  0  0
   -1.5880    1.4134    0.0384 H   0  0  0  0  0  0  0  0  0  0  0  0
    1.7380    0.5985   -1.6286 H   0  0  0  0  0  0  0  0  0  0  0  0
    1.6728   -1.1067   -1.1625 H   0  0  0  0  0  0  0  0  0  0  0  0
   -0.5063   -1.7076    0.2479 H   0  0  0  0  0  0  0  0  0  0  0  0
  1  3  1  0  0  0  0
  1  7  2  0  0  0  0
  1 22  1  0  0  0  0
  2  4  2  0  0  0  0
  2  7  1  0  0  0  0
  2 23  1  0  0  0  0
  3  8  2  0  0  0  0
  3 24  1  0  0  0  0
  4  8  1  0  0  0  0
  4 25  1  0  0  0  0
  5 16  1  0  0  0  0
  5 17  2  0  0  0  0
  5 26  1  0  0  0  0
  6 16  2  0  0  0  0
  6 18  1  0  0  0  0
  6 27  1  0  0  0  0
  7 13  1  0  0  0  0
  8 21  1  0  0  0  0
  9 10  1  0  0  0  0
  9 11  1  0  0  0  0
  9 28  1  0  0  0  0
  9 29  1  0  0  0  0
 10 11  1  0  0  0  0
 10 30  1  0  0  0  0
 10 31  1  0  0  0  0
 11 15  1  0  0  0  0
 11 20  1  0  0  0  0
 12 20  1  0  0  0  0
 12 32  1  0  0  0  0
 12 33  1  0  0  0  0
 12 34  1  0  0  0  0
 13 15  1  0  0  0  0
 13 35  1  0  0  0  0
 13 36  1  0  0  0  0
 14 15  1  0  0  0  0
 14 18  1  0  0  0  0
 14 37  1  0  0  0  0
 14 38  1  0  0  0  0
 15 19  1  0  0  0  0
 17 18  1  0  0  0  0
 19 39  1  0  0  0  0
M  END
$$$$
