27
0 1 C11H12N2OS
C                    -1.167822813195     0.718244724310    -1.437655659940
C                    -0.887296311043    -0.286856001352    -0.499816284104
C                    -2.184346511588     0.534332719645    -2.385400857443
C                    -1.600831464013    -1.492446282033    -0.482893292158
C                    -2.892982795946    -0.664143456077    -2.381203503185
C                    -2.601151269372    -1.655216196602    -1.439978557391
C                    -6.479256075816    -0.579003240343    -3.465521766237
C                    -8.718982062021    -0.505362526947    -3.826729610487
C                    -4.146102276118    -2.622151010798    -2.791953923335
C                    -8.310914083487    -1.459367520429    -4.972818903969
C                    -4.070170532323    -1.126974497156    -3.207393917217
N                    -7.604022750397    -0.348303328791    -2.899370758645
N                    -5.257111999546    -0.325167965729    -2.888464257580
O                    -3.398707867493    -2.762759343625    -1.552261992086
S                    -6.504867416712    -1.199596708465    -5.167349516129
H                    -0.596305726433     1.641807158298    -1.426701760472
H                    -0.097690944478    -0.130701892022     0.230719787448
H                    -2.420674381528     1.312821089034    -3.106359869252
H                    -1.388924360330    -2.273070273058     0.241209164576
H                    -8.989608759250     0.478789639309    -4.234318059217
H                    -9.594711437673    -0.894688234037    -3.297987277649
H                    -5.166662935157    -2.962567276062    -2.612604331119
H                    -3.671125517365    -3.260007525433    -3.544583466230
H                    -8.488479724073    -2.506173395286    -4.712575923055
H                    -8.816794627297    -1.230208657584    -5.912511252017
H                    -3.885180202089    -1.040313267365    -4.280802266011
H                    -5.342332904221    -0.050813897689    -1.913796285757
