
  -OEChem-05262117483D

 56 58  0     1  0  0  0  0  0999 V2000
    0.4908    0.7243    3.5250 C   0  0  0  0  0  0  0  0  0  0  0  0
   -0.3973    2.9456    3.7073 C   0  0  0  0  0  0  0  0  0  0  0  0
    1.0245    0.8222    4.8061 C   0  0  0  0  0  0  0  0  0  0  0  0
    0.1278    3.0584    5.0018 C   0  0  0  0  0  0  0  0  0  0  0  0
   -0.2304    1.7852    2.9474 C   0  0  0  0  0  0  0  0  0  0  0  0
    0.8460    1.9936    5.5573 C   0  0  0  0  0  0  0  0  0  0  0  0
   -2.3074   -1.3989   -0.3862 C   0  0  0  0  0  0  0  0  0  0  0  0
   -1.3029   -2.4066   -0.9893 C   0  0  0  0  0  0  0  0  0  0  0  0
    0.4172    1.8391    0.4989 C   0  0  0  0  0  0  0  0  0  0  0  0
    0.9721    0.4845    0.0517 C   0  0  0  0  0  0  0  0  0  0  0  0
   -1.5197    0.3771    1.2756 C   0  0  0  0  0  0  0  0  0  0  0  0
   -1.5348   -0.0613   -0.1931 C   0  0  1  0  0  0  0  0  0  0  0  0
    0.0755   -1.8593   -0.5894 C   0  0  1  0  0  0  0  0  0  0  0  0
   -0.7527    1.6980    1.5168 C   0  0  1  0  0  0  0  0  0  0  0  0
   -0.0874   -0.3212   -0.7285 C   0  0  2  0  0  0  0  0  0  0  0  0
   -0.0160    0.0563   -2.2205 C   0  0  0  0  0  0  0  0  0  0  0  0
    2.7418   -2.7414    0.6189 C   0  0  0  0  0  0  0  0  0  0  0  0
    1.2950   -3.3510    2.5807 C   0  0  0  0  0  0  0  0  0  0  0  0
    0.9811   -4.5450    0.3916 C   0  0  0  0  0  0  0  0  0  0  0  0
    1.2341    3.1608    7.6080 C   0  0  0  0  0  0  0  0  0  0  0  0
    1.3441   -3.2085    1.0568 C   0  0  0  0  0  0  0  0  0  0  0  0
   -1.6515    2.8171    1.3458 O   0  0  0  0  0  0  0  0  0  0  0  0
    1.4034    1.9942    6.8119 O   0  0  0  0  0  0  0  0  0  0  0  0
    0.3521   -2.1938    0.7775 O   0  0  0  0  0  0  0  0  0  0  0  0
    0.6389   -0.2009    2.9778 H   0  0  0  0  0  0  0  0  0  0  0  0
   -0.9535    3.7747    3.2856 H   0  0  0  0  0  0  0  0  0  0  0  0
    1.5775   -0.0022    5.2477 H   0  0  0  0  0  0  0  0  0  0  0  0
   -0.0347    3.9759    5.5567 H   0  0  0  0  0  0  0  0  0  0  0  0
   -3.1913   -1.2781   -1.0193 H   0  0  0  0  0  0  0  0  0  0  0  0
   -2.6596   -1.7599    0.5847 H   0  0  0  0  0  0  0  0  0  0  0  0
   -1.4521   -3.4233   -0.6209 H   0  0  0  0  0  0  0  0  0  0  0  0
   -1.3843   -2.4402   -2.0808 H   0  0  0  0  0  0  0  0  0  0  0  0
    1.2022    2.4655    0.9314 H   0  0  0  0  0  0  0  0  0  0  0  0
    0.0404    2.3813   -0.3784 H   0  0  0  0  0  0  0  0  0  0  0  0
    1.8601    0.6335   -0.5741 H   0  0  0  0  0  0  0  0  0  0  0  0
    1.3000   -0.0819    0.9235 H   0  0  0  0  0  0  0  0  0  0  0  0
   -2.5392    0.5166    1.6511 H   0  0  0  0  0  0  0  0  0  0  0  0
   -1.0782   -0.4342    1.8555 H   0  0  0  0  0  0  0  0  0  0  0  0
   -2.0020    0.7264   -0.7995 H   0  0  0  0  0  0  0  0  0  0  0  0
    0.8745   -2.2251   -1.2420 H   0  0  0  0  0  0  0  0  0  0  0  0
   -0.8323   -0.3830   -2.8020 H   0  0  0  0  0  0  0  0  0  0  0  0
    0.9309   -0.2694   -2.6667 H   0  0  0  0  0  0  0  0  0  0  0  0
   -0.0813    1.1431   -2.3424 H   0  0  0  0  0  0  0  0  0  0  0  0
    2.8126   -2.6151   -0.4655 H   0  0  0  0  0  0  0  0  0  0  0  0
    2.9902   -1.7868    1.0913 H   0  0  0  0  0  0  0  0  0  0  0  0
    3.4967   -3.4779    0.9134 H   0  0  0  0  0  0  0  0  0  0  0  0
    0.2884   -3.6342    2.9019 H   0  0  0  0  0  0  0  0  0  0  0  0
    1.5534   -2.4026    3.0613 H   0  0  0  0  0  0  0  0  0  0  0  0
    2.0007   -4.1143    2.9230 H   0  0  0  0  0  0  0  0  0  0  0  0
   -0.0087   -4.8783    0.7176 H   0  0  0  0  0  0  0  0  0  0  0  0
    0.9769   -4.4689   -0.6999 H   0  0  0  0  0  0  0  0  0  0  0  0
    1.7101   -5.3142    0.6669 H   0  0  0  0  0  0  0  0  0  0  0  0
    1.7423    2.9564    8.5518 H   0  0  0  0  0  0  0  0  0  0  0  0
    0.1734    3.3628    7.8038 H   0  0  0  0  0  0  0  0  0  0  0  0
    1.6892    4.0400    7.1344 H   0  0  0  0  0  0  0  0  0  0  0  0
   -1.9701    2.7899    0.4302 H   0  0  0  0  0  0  0  0  0  0  0  0
  1  3  1  0  0  0  0
  1  5  2  0  0  0  0
  1 25  1  0  0  0  0
  2  4  2  0  0  0  0
  2  5  1  0  0  0  0
  2 26  1  0  0  0  0
  3  6  2  0  0  0  0
  3 27  1  0  0  0  0
  4  6  1  0  0  0  0
  4 28  1  0  0  0  0
  5 14  1  0  0  0  0
  6 23  1  0  0  0  0
  7  8  1  0  0  0  0
  7 12  1  0  0  0  0
  7 29  1  0  0  0  0
  7 30  1  0  0  0  0
  8 13  1  0  0  0  0
  8 31  1  0  0  0  0
  8 32  1  0  0  0  0
  9 10  1  0  0  0  0
  9 14  1  0  0  0  0
  9 33  1  0  0  0  0
  9 34  1  0  0  0  0
 10 15  1  0  0  0  0
 10 35  1  0  0  0  0
 10 36  1  0  0  0  0
 11 12  1  0  0  0  0
 11 14  1  0  0  0  0
 11 37  1  0  0  0  0
 11 38  1  0  0  0  0
 12 15  1  0  0  0  0
 12 39  1  0  0  0  0
 13 15  1  0  0  0  0
 13 24  1  0  0  0  0
 13 40  1  0  0  0  0
 14 22  1  0  0  0  0
 15 16  1  0  0  0  0
 16 41  1  0  0  0  0
 16 42  1  0  0  0  0
 16 43  1  0  0  0  0
 17 21  1  0  0  0  0
 17 44  1  0  0  0  0
 17 45  1  0  0  0  0
 17 46  1  0  0  0  0
 18 21  1  0  0  0  0
 18 47  1  0  0  0  0
 18 48  1  0  0  0  0
 18 49  1  0  0  0  0
 19 21  1  0  0  0  0
 19 50  1  0  0  0  0
 19 51  1  0  0  0  0
 19 52  1  0  0  0  0
 20 23  1  0  0  0  0
 20 53  1  0  0  0  0
 20 54  1  0  0  0  0
 20 55  1  0  0  0  0
 21 24  1  0  0  0  0
 22 56  1  0  0  0  0
M  END
$$$$
