
  -OEChem-05262117483D

 28 30  0     1  0  0  0  0  0999 V2000
   -1.3640    1.0457   -1.5404 C   0  0  0  0  0  0  0  0  0  0  0  0
   -0.9601    0.0709   -0.6129 C   0  0  0  0  0  0  0  0  0  0  0  0
   -2.3555    0.7552   -2.4842 C   0  0  0  0  0  0  0  0  0  0  0  0
   -1.5195   -1.2125   -0.6002 C   0  0  0  0  0  0  0  0  0  0  0  0
   -2.9176   -0.5224   -2.4772 C   0  0  0  0  0  0  0  0  0  0  0  0
   -2.4995   -1.4838   -1.5510 C   0  0  0  0  0  0  0  0  0  0  0  0
   -6.5021   -0.7139   -3.4151 C   0  0  0  0  0  0  0  0  0  0  0  0
   -8.8040   -0.3126   -3.8740 C   0  0  0  0  0  0  0  0  0  0  0  0
   -3.8688   -2.6256   -2.9379 C   0  0  0  0  0  0  0  0  0  0  0  0
   -8.4904   -1.4566   -4.8410 C   0  0  0  0  0  0  0  0  0  0  0  0
   -4.0360   -1.1263   -3.2836 C   0  0  1  0  0  0  0  0  0  0  0  0
   -7.6760   -0.2912   -2.9258 N   0  3  0  0  0  0  0  0  0  0  0  0
   -5.3376   -0.5609   -2.8084 N   0  0  0  0  0  0  0  0  0  0  0  0
   -3.1617   -2.6790   -1.6816 O   0  0  0  0  0  0  0  0  0  0  0  0
   -6.6464   -1.4987   -4.9706 S   0  0  0  0  0  0  0  0  0  0  0  0
   -0.8979    2.0258   -1.5288 H   0  0  0  0  0  0  0  0  0  0  0  0
   -0.1858    0.3138    0.1091 H   0  0  0  0  0  0  0  0  0  0  0  0
   -2.6681    1.5040   -3.2078 H   0  0  0  0  0  0  0  0  0  0  0  0
   -1.2011   -1.9704    0.1082 H   0  0  0  0  0  0  0  0  0  0  0  0
   -8.8692    0.6483   -4.3953 H   0  0  0  0  0  0  0  0  0  0  0  0
   -9.7347   -0.4944   -3.3338 H   0  0  0  0  0  0  0  0  0  0  0  0
   -4.8101   -3.1653   -2.8261 H   0  0  0  0  0  0  0  0  0  0  0  0
   -3.2559   -3.1078   -3.7066 H   0  0  0  0  0  0  0  0  0  0  0  0
   -8.8246   -2.4233   -4.4614 H   0  0  0  0  0  0  0  0  0  0  0  0
   -8.9043   -1.2838   -5.8340 H   0  0  0  0  0  0  0  0  0  0  0  0
   -3.9689   -0.9368   -4.3577 H   0  0  0  0  0  0  0  0  0  0  0  0
   -7.7211    0.2697   -2.0802 H   0  0  0  0  0  0  0  0  0  0  0  0
   -5.2996   -0.0575   -1.9248 H   0  0  0  0  0  0  0  0  0  0  0  0
  1  2  1  0  0  0  0
  1  3  2  0  0  0  0
  1 16  1  0  0  0  0
  2  4  2  0  0  0  0
  2 17  1  0  0  0  0
  3  5  1  0  0  0  0
  3 18  1  0  0  0  0
  4  6  1  0  0  0  0
  4 19  1  0  0  0  0
  5  6  2  0  0  0  0
  5 11  1  0  0  0  0
  6 14  1  0  0  0  0
  7 12  2  0  0  0  0
  7 13  1  0  0  0  0
  7 15  1  0  0  0  0
  8 10  1  0  0  0  0
  8 12  1  0  0  0  0
  8 20  1  0  0  0  0
  8 21  1  0  0  0  0
  9 11  1  0  0  0  0
  9 14  1  0  0  0  0
  9 22  1  0  0  0  0
  9 23  1  0  0  0  0
 10 15  1  0  0  0  0
 10 24  1  0  0  0  0
 10 25  1  0  0  0  0
 11 13  1  0  0  0  0
 11 26  1  0  0  0  0
 12 27  1  0  0  0  0
 13 28  1  0  0  0  0
M  CHG  1  12   1
M  END
$$$$
