65
0 1 C30H29NO5
C                    -5.888831815406    -5.761979534131    10.993032228396
C                    -6.267960187686    -4.798760459431    10.024230953261
C                     6.413467362665     1.399459548330    -2.675995284118
C                     7.438103913917     0.600621219503    -2.134613675314
C                    -4.583735279577    -6.209352843210    11.050733023517
C                    -5.337108962049    -4.302029511303     9.133309926495
C                     5.135814205695     1.401105808049    -2.112005346295
C                     2.382731433588     0.791281016786    -0.205964343064
C                     7.212240438650    -0.209821335832    -1.017749807282
C                     1.477800032702     0.314904261513     0.734075573869
C                    -2.250601869078    -6.147583093389    10.184491557123
C                    -3.009807386042    -4.250930725771     8.258341888679
C                     3.196980185971    -1.097122700517     1.764414866833
C                    -3.605315017989    -5.714948322146    10.147793011728
C                    -3.986907514535    -4.743667730068     9.169758372157
C                     4.882942869705     0.594168686602    -0.995500583210
C                     3.709412536328     0.336043499344    -0.183825018515
C                     5.932970047331    -0.199212105357    -0.455029926515
C                     4.095527667071    -0.598640789668     0.810326242184
C                     1.880639518141    -0.622957154553     1.712716486478
C                    -1.318298417130    -5.661597903457     9.300328747766
C                    -1.704552504517    -4.697806645314     8.308108131911
C                     6.643933282638    -4.450942724815     1.334195075167
C                     0.958870301675    -5.223760870432     9.796466091357
C                     5.946645288231    -3.307003007373     0.616713456146
C                    -0.028443629622    -2.173091166322     4.443472282506
C                     0.225319634556    -3.144740864796     5.600914861372
C                     6.147505473676    -1.964726713560     1.333910388411
C                     1.228681960164    -1.932110251752     3.620539695054
C                    -1.035950153637    -3.387810632321     6.416553836373
N                     5.448726284347    -0.892046602569     0.657583489618
O                     7.247907252529    -4.337794164757     2.375666139935
O                     6.549322832165    -5.670147258722     0.727200815762
O                    -0.032581536113    -6.151057258196     9.330885731247
O                     0.894568560611    -1.014489509444     2.578881492057
O                    -0.706151178217    -4.303603945799     7.462436990219
H                    -6.629695388777    -6.146903910314    11.688840034769
H                    -7.297479123679    -4.452289179185     9.984668696597
H                     6.621674247621     2.019638972327    -3.543485915652
H                     8.424587523837     0.613358086331    -2.590262458701
H                    -4.288913086830    -6.948896548074    11.791836785133
H                    -5.630719788785    -3.563898228040     8.390018059447
H                     4.348243419670     2.018482524327    -2.536967153819
H                     2.057343658229     1.510674362566    -0.953042335467
H                     8.013713514349    -0.817444194262    -0.606565514737
H                     0.444395269075     0.647067018616     0.742027509230
H                    -1.930500791016    -6.885080702818    10.915916985062
H                    -3.320552124176    -3.523702498629     7.516130104069
H                     3.514868001516    -1.811676577827     2.513868182274
H                     1.907135161783    -5.764812849460     9.787495823247
H                     0.730151497305    -4.901935833562    10.820397857942
H                     1.026725335413    -4.351400660245     9.139849863596
H                     4.874749994668    -3.529501360089     0.544358653956
H                     6.320348297617    -3.236180204959    -0.412088889236
H                    -0.810302953095    -2.563687179181     3.781802216588
H                    -0.385872391865    -1.209601586815     4.824984471118
H                     1.003807929861    -2.750954543077     6.264992657141
H                     0.587051110240    -4.107458591715     5.221790405003
H                     7.210445623013    -1.722959431072     1.390385741407
H                     5.796101579189    -2.033141854918     2.364932965573
H                     2.027522056442    -1.511659304233     4.247171551410
H                     1.593564453299    -2.874419502818     3.187956693217
H                    -1.829346439904    -3.814360246649     5.787996981494
H                    -1.408631020199    -2.447957033392     6.846638878354
H                     6.039175797093    -5.594109615984    -0.097461456197
