56
0 1 C21H32O3
C                    -2.566448743373     0.266051102976    -2.496865443323
C                    -2.986896235365     2.543754793481    -1.874313056418
C                    -3.664566942642     0.282310771287    -3.349390631125
C                    -4.095102700729     2.580967498038    -2.732660071971
C                    -2.204701873924     1.395364076560    -1.741451459905
C                    -4.440019126035     1.446106027315    -3.474246993547
C                     0.712975532194    -1.631603732659    -1.015587499239
C                     0.861285552480    -2.367056977061     0.334264379103
C                    -1.343998458710     0.386039834118     0.392050197126
C                    -0.193526149146     0.301861927141     1.404268081099
C                     0.292693212285     0.901159796152    -1.495988250316
C                     1.138105178854    -0.151698939935    -0.758520883365
C                     1.695269778431    -1.408630898488     1.199049110596
C                    -1.024468029478     1.335557727651    -0.780572417415
C                     1.206669019008     0.001166322448     0.784116428322
C                     2.214959386766     1.072082193661     1.214140376794
C                     3.873388038294    -1.461567087840     3.372346777741
C                     2.014883002730    -2.485373423549     4.720005565801
C                     2.884397816472    -3.689071636405     2.691110955969
C                    -6.309292362200     2.529313669113    -4.499354882941
C                     2.596797686126    -2.314988945258     3.314005471816
O                    -0.864245357038     2.673201487743    -0.257049338238
O                    -5.501467440146     1.369054364623    -4.340657653771
O                     1.551945422403    -1.617532407909     2.598041919334
H                    -1.982716505595    -0.648253052914    -2.425421640869
H                    -2.727137663269     3.426102048746    -1.301471216843
H                    -3.939187689537    -0.593363739271    -3.930578045112
H                    -4.671261348975     3.496712582306    -2.807729643212
H                     1.350557128685    -2.073231949974    -1.787887606825
H                    -0.311283207696    -1.701510624573    -1.390261786937
H                    -0.109908370955    -2.508599376458     0.819430963640
H                     1.321421446399    -3.353803106503     0.238760645747
H                    -1.581834742998    -0.606153111061    -0.000233880452
H                    -2.250290120199     0.751041423876     0.886106297331
H                    -0.141938837796     1.244957366206     1.961778122267
H                    -0.428901426022    -0.448453761941     2.162649473352
H                     0.875224360673     1.815422427506    -1.646381101519
H                     0.072182168708     0.524522414464    -2.498681992268
H                     2.164691711085    -0.047116213720    -1.130902251501
H                     2.750912378237    -1.487502295773     0.907705691789
H                     3.216006323947     0.859448624920     0.820987871787
H                     2.282350617847     1.120173601604     2.305658693767
H                     1.929875896231     2.068036350534     0.852763465716
H                     4.303139211789    -1.299620969893     2.379265592738
H                     3.654909416213    -0.484857031745     3.813713131713
H                     4.635447159243    -1.955362658229     3.984399368017
H                     1.099551639789    -3.083382671967     4.680751068019
H                     1.767242064874    -1.508582546219     5.146141088378
H                     2.731325233041    -2.983534610675     5.380594305715
H                     1.963010459572    -4.274152196548     2.616201291498
H                     3.319820314428    -3.599496524054     1.691214158997
H                     3.595835326854    -4.243652422415     3.311833141156
H                    -7.082417832773     2.259984165147    -5.220705866894
H                    -5.726892306883     3.373377011685    -4.890045380391
H                    -6.782161889673     2.821654724548    -3.553188205181
H                    -0.172502293115     2.641317094979     0.420825181642
