27
0 1 C10H13N3O
C                    -2.792080740653    -1.360957995634    -0.113691839842
C                    -1.741913579780    -0.882581553767     0.672525453757
C                    -3.016688732405    -2.748093832243    -0.226741316759
C                     0.515076797049    -3.050871003121     2.511887694229
C                    -0.319842289238    -3.984686642450     1.942375278910
C                    -1.273013590484    -3.233406072808     1.167752093952
C                    -0.969272565651    -1.845810534664     1.319040297120
C                    -0.259444156164    -5.478891634359     2.072878052131
C                    -0.000668080937    -5.884231561495    -0.446646627058
C                     0.525726102114    -6.205679898276     0.960123959529
N                    -2.284265323873    -3.678172988330     0.393301256720
N                     0.129514767618    -1.764964369740     2.148602252623
N                     1.949582254470    -5.828940972773     1.029754229348
O                    -1.370890498417    -6.217576474027    -0.607653926424
H                    -3.436841933075    -0.672114277773    -0.650825589715
H                    -1.542792244190     0.182575747539     0.764679934586
H                    -3.825394739806    -3.114937540790    -0.855684238163
H                     1.373926758498    -3.203310748817     3.151662635006
H                     0.189023771851    -5.745128023443     3.037683674193
H                    -1.277225364821    -5.881026732013     2.081860761197
H                     0.560787415554    -6.480509918882    -1.177475153687
H                     0.190833594954    -4.826088059607    -0.671316633088
H                     0.364632123522    -7.284266552999     1.122158069062
H                     0.595101207974    -0.915227829419     2.432337685381
H                     2.454005952252    -6.261218464730     0.255886862909
H                     2.359351040310    -6.213273480122     1.880255293152
H                    -1.893719371178    -5.455836028886    -0.271895129711
