
  -OEChem-05262117483D

 50 52  0     1  0  0  0  0  0999 V2000
  -11.5807   -0.0472    7.6908 C   0  0  0  0  0  0  0  0  0  0  0  0
   -6.7123    1.2693    1.0000 C   0  0  0  0  0  0  0  0  0  0  0  0
  -10.6686    0.0629    8.7202 C   0  0  0  0  0  0  0  0  0  0  0  0
   -7.7067    1.5991    1.9285 C   0  0  0  0  0  0  0  0  0  0  0  0
   -5.8049    0.2449    1.2741 C   0  0  0  0  0  0  0  0  0  0  0  0
  -11.1578   -0.0044    6.3420 C   0  0  0  0  0  0  0  0  0  0  0  0
   -6.9685    0.4001    9.0697 C   0  0  0  0  0  0  0  0  0  0  0  0
   -6.8870   -0.1314    3.4015 C   0  0  0  0  0  0  0  0  0  0  0  0
   -6.6384    0.4064    7.6923 C   0  0  0  0  0  0  0  0  0  0  0  0
   -9.2827    0.2032    8.4371 C   0  0  0  0  0  0  0  0  0  0  0  0
   -7.7934    0.9039    3.1388 C   0  0  0  0  0  0  0  0  0  0  0  0
   -5.8908   -0.4644    2.4814 C   0  0  0  0  0  0  0  0  0  0  0  0
   -8.2880    0.2971    9.4628 C   0  0  0  0  0  0  0  0  0  0  0  0
   -8.8417    0.2324    7.0736 C   0  0  0  0  0  0  0  0  0  0  0  0
   -9.8201    0.1402    6.0279 C   0  0  0  0  0  0  0  0  0  0  0  0
   -8.6683    0.2789   10.9211 C   0  0  0  0  0  0  0  0  0  0  0  0
   -2.7487    0.9012    6.8250 C   0  0  0  0  0  0  0  0  0  0  0  0
   -8.8161    1.2904    4.1752 C   0  0  0  0  0  0  0  0  0  0  0  0
   -2.5363    0.2526    5.4527 C   0  0  0  0  0  0  0  0  0  0  0  0
   -3.8332   -0.2814    4.8323 C   0  0  0  0  0  0  0  0  0  0  0  0
   -3.6063   -0.9398    3.4676 C   0  0  0  0  0  0  0  0  0  0  0  0
   -4.8731   -1.5319    2.8215 C   0  0  2  0  0  0  0  0  0  0  0  0
   -7.5264    0.3276    6.7217 N   0  0  0  0  0  0  0  0  0  0  0  0
   -4.5381   -2.2251    1.6081 O   0  0  0  0  0  0  0  0  0  0  0  0
   -9.4477    0.1051    4.7118 O   0  0  0  0  0  0  0  0  0  0  0  0
  -12.6387   -0.1619    7.9114 H   0  0  0  0  0  0  0  0  0  0  0  0
   -6.6544    1.8062    0.0562 H   0  0  0  0  0  0  0  0  0  0  0  0
  -11.0100    0.0348    9.7497 H   0  0  0  0  0  0  0  0  0  0  0  0
   -8.4178    2.3920    1.7049 H   0  0  0  0  0  0  0  0  0  0  0  0
   -5.0435   -0.0281    0.5500 H   0  0  0  0  0  0  0  0  0  0  0  0
  -11.8734   -0.0890    5.5294 H   0  0  0  0  0  0  0  0  0  0  0  0
   -6.1734    0.4739    9.8073 H   0  0  0  0  0  0  0  0  0  0  0  0
   -6.9713   -0.6635    4.3438 H   0  0  0  0  0  0  0  0  0  0  0  0
   -5.5953    0.4800    7.3891 H   0  0  0  0  0  0  0  0  0  0  0  0
   -9.3482    1.1026   11.1647 H   0  0  0  0  0  0  0  0  0  0  0  0
   -9.1799   -0.6530   11.1859 H   0  0  0  0  0  0  0  0  0  0  0  0
   -7.7838    0.3709   11.5559 H   0  0  0  0  0  0  0  0  0  0  0  0
   -3.1494    0.1778    7.5453 H   0  0  0  0  0  0  0  0  0  0  0  0
   -1.8097    1.2894    7.2344 H   0  0  0  0  0  0  0  0  0  0  0  0
   -3.4550    1.7371    6.7617 H   0  0  0  0  0  0  0  0  0  0  0  0
   -8.3353    1.8429    4.9863 H   0  0  0  0  0  0  0  0  0  0  0  0
   -9.5970    1.9225    3.7343 H   0  0  0  0  0  0  0  0  0  0  0  0
   -2.0860    0.9844    4.7695 H   0  0  0  0  0  0  0  0  0  0  0  0
   -1.8104   -0.5661    5.5452 H   0  0  0  0  0  0  0  0  0  0  0  0
   -4.5535    0.5380    4.7300 H   0  0  0  0  0  0  0  0  0  0  0  0
   -4.2938   -1.0076    5.5166 H   0  0  0  0  0  0  0  0  0  0  0  0
   -2.8727   -1.7521    3.5852 H   0  0  0  0  0  0  0  0  0  0  0  0
   -3.1705   -0.2174    2.7668 H   0  0  0  0  0  0  0  0  0  0  0  0
   -5.3314   -2.2360    3.5322 H   0  0  0  0  0  0  0  0  0  0  0  0
   -3.8103   -2.8340    1.8094 H   0  0  0  0  0  0  0  0  0  0  0  0
  1  3  1  0  0  0  0
  1  6  2  0  0  0  0
  1 26  1  0  0  0  0
  2  4  2  0  0  0  0
  2  5  1  0  0  0  0
  2 27  1  0  0  0  0
  3 10  2  0  0  0  0
  3 28  1  0  0  0  0
  4 11  1  0  0  0  0
  4 29  1  0  0  0  0
  5 12  2  0  0  0  0
  5 30  1  0  0  0  0
  6 15  1  0  0  0  0
  6 31  1  0  0  0  0
  7  9  1  0  0  0  0
  7 13  2  0  0  0  0
  7 32  1  0  0  0  0
  8 11  2  0  0  0  0
  8 12  1  0  0  0  0
  8 33  1  0  0  0  0
  9 23  2  0  0  0  0
  9 34  1  0  0  0  0
 10 13  1  0  0  0  0
 10 14  1  0  0  0  0
 11 18  1  0  0  0  0
 12 22  1  0  0  0  0
 13 16  1  0  0  0  0
 14 15  2  0  0  0  0
 14 23  1  0  0  0  0
 15 25  1  0  0  0  0
 16 35  1  0  0  0  0
 16 36  1  0  0  0  0
 16 37  1  0  0  0  0
 17 19  1  0  0  0  0
 17 38  1  0  0  0  0
 17 39  1  0  0  0  0
 17 40  1  0  0  0  0
 18 25  1  0  0  0  0
 18 41  1  0  0  0  0
 18 42  1  0  0  0  0
 19 20  1  0  0  0  0
 19 43  1  0  0  0  0
 19 44  1  0  0  0  0
 20 21  1  0  0  0  0
 20 45  1  0  0  0  0
 20 46  1  0  0  0  0
 21 22  1  0  0  0  0
 21 47  1  0  0  0  0
 21 48  1  0  0  0  0
 22 24  1  0  0  0  0
 22 49  1  0  0  0  0
 24 50  1  0  0  0  0
M  END
$$$$
