27
0 1 C10H13N3O
C                     4.352722343830    -0.719851793164    -0.386168175467
C                     4.543777404739     0.294615342668    -1.322151811493
C                     2.303457750496     0.835982250929    -1.447295723520
C                     1.089744303292    -1.658552457828     0.921306800253
C                     1.970240771846    -0.158862819303    -0.510691606048
C                     0.738601690053    -0.628017506882     0.082615998105
C                     3.031971264414    -0.945966902779     0.017138838038
C                    -0.645980744805    -0.140392730156    -0.236539350321
C                    -0.619798294695    -1.355942332320    -2.474382613971
C                    -1.426711439123    -1.044643455687    -1.215636249641
N                     3.557253042883     1.058613691714    -1.848619206211
N                     2.470230144524    -1.850596820824     0.889404489549
N                    -1.767177526421    -2.317892365984    -0.555494018873
O                    -0.369235563080    -0.129478455478    -3.170075827019
H                     5.193092542774    -1.294727467139    -0.005908729233
H                     5.548870975925     0.514378156128    -1.677720563466
H                     1.531124881548     1.466247136383    -1.884891483488
H                     0.459127890709    -2.298185161063     1.522909632899
H                    -1.238570266066    -0.041772576955     0.681425309547
H                    -0.587643233080     0.857885911699    -0.676965636854
H                    -1.192544660118    -2.040777501060    -3.118949640690
H                     0.312538982260    -1.855719441435    -2.189312241740
H                    -2.319910002270    -0.481073419980    -1.532144971165
H                     2.974256657767    -2.543609243289     1.423651635947
H                    -2.267297494743    -2.919337540864    -1.209769997463
H                    -2.415536885745    -2.133464757505     0.208901440628
H                     0.487492789346    -0.198941510590    -3.615725563589
