
  -OEChem-05262117483D

 23 23  0     0  0  0  0  0  0999 V2000
    2.0205   -1.2096   -0.2656 C   0  0  0  0  0  0  0  0  0  0  0  0
    0.8262   -0.8362    0.3439 C   0  0  0  0  0  0  0  0  0  0  0  0
    1.8871   -1.0066    2.5256 C   0  0  0  0  0  0  0  0  0  0  0  0
    3.1553   -1.4900    0.5088 C   0  0  0  0  0  0  0  0  0  0  0  0
    0.7678   -0.7458    1.7348 C   0  0  0  0  0  0  0  0  0  0  0  0
    3.0789   -1.3801    1.9123 C   0  0  0  0  0  0  0  0  0  0  0  0
   -1.5464   -1.7628    2.7785 N   0  0  0  0  0  0  0  0  0  0  0  0
    4.0125   -1.4589    4.4543 N   0  0  0  0  0  0  0  0  0  0  0  0
   -0.4373    0.2740    3.8413 O   0  0  0  0  0  0  0  0  0  0  0  0
   -1.5693    0.4501    1.5347 O   0  0  0  0  0  0  0  0  0  0  0  0
    4.8695   -3.1462    2.7547 O   0  0  0  0  0  0  0  0  0  0  0  0
    5.5500   -0.6811    2.5725 O   0  0  0  0  0  0  0  0  0  0  0  0
    4.3399   -1.8603   -0.0339 O   0  0  0  0  0  0  0  0  0  0  0  0
   -0.7669   -0.2750    2.5236 S   0  0  0  0  0  0  0  0  0  0  0  0
    4.5662   -1.7203    2.8746 S   0  0  0  0  0  0  0  0  0  0  0  0
    2.0804   -1.2790   -1.3498 H   0  0  0  0  0  0  0  0  0  0  0  0
   -0.0491   -0.6004   -0.2527 H   0  0  0  0  0  0  0  0  0  0  0  0
    1.8419   -0.9062    3.6036 H   0  0  0  0  0  0  0  0  0  0  0  0
   -1.6481   -1.9267    3.7793 H   0  0  0  0  0  0  0  0  0  0  0  0
   -2.4547   -1.7476    2.3159 H   0  0  0  0  0  0  0  0  0  0  0  0
    4.1345   -2.3127    4.9971 H   0  0  0  0  0  0  0  0  0  0  0  0
    4.5210   -0.6790    4.8687 H   0  0  0  0  0  0  0  0  0  0  0  0
    4.2721   -1.8861   -1.0020 H   0  0  0  0  0  0  0  0  0  0  0  0
  1  2  1  0  0  0  0
  1  4  2  0  0  0  0
  1 16  1  0  0  0  0
  2  5  2  0  0  0  0
  2 17  1  0  0  0  0
  3  5  1  0  0  0  0
  3  6  2  0  0  0  0
  3 18  1  0  0  0  0
  4  6  1  0  0  0  0
  4 13  1  0  0  0  0
  5 14  1  0  0  0  0
  6 15  1  0  0  0  0
  7 14  1  0  0  0  0
  7 19  1  0  0  0  0
  7 20  1  0  0  0  0
  8 15  1  0  0  0  0
  8 21  1  0  0  0  0
  8 22  1  0  0  0  0
  9 14  2  0  0  0  0
 10 14  2  0  0  0  0
 11 15  2  0  0  0  0
 12 15  2  0  0  0  0
 13 23  1  0  0  0  0
M  END
$$$$
