
  -OEChem-05262117483D

 23 23  0     0  0  0  0  0  0999 V2000
    2.0351   -1.2064    0.0738 C   0  0  0  0  0  0  0  0  0  0  0  0
    1.0859   -0.3748    0.6627 C   0  0  0  0  0  0  0  0  0  0  0  0
    1.8606   -1.0426    2.8678 C   0  0  0  0  0  0  0  0  0  0  0  0
    2.9119   -1.9531    0.8721 C   0  0  0  0  0  0  0  0  0  0  0  0
    1.0087   -0.2965    2.0541 C   0  0  0  0  0  0  0  0  0  0  0  0
    2.8159   -1.8597    2.2719 C   0  0  0  0  0  0  0  0  0  0  0  0
    0.6085    2.2407    2.9809 N   0  0  0  0  0  0  0  0  0  0  0  0
    3.6482   -4.3656    2.8945 N   0  0  0  0  0  0  0  0  0  0  0  0
   -1.2691    1.0065    1.8132 O   0  0  0  0  0  0  0  0  0  0  0  0
   -0.4917    0.2458    4.1464 O   0  0  0  0  0  0  0  0  0  0  0  0
    5.3147   -2.3993    2.9641 O   0  0  0  0  0  0  0  0  0  0  0  0
    3.4568   -2.6125    4.7081 O   0  0  0  0  0  0  0  0  0  0  0  0
    3.8456   -2.7921    0.3490 O   0  0  0  0  0  0  0  0  0  0  0  0
   -0.2180    0.7686    2.8066 S   0  0  0  0  0  0  0  0  0  0  0  0
    3.9482   -2.7621    3.3366 S   0  0  0  0  0  0  0  0  0  0  0  0
    2.0916   -1.2851   -1.0101 H   0  0  0  0  0  0  0  0  0  0  0  0
    0.3938    0.1940    0.0502 H   0  0  0  0  0  0  0  0  0  0  0  0
    1.7801   -1.0093    3.9498 H   0  0  0  0  0  0  0  0  0  0  0  0
    0.0623    2.9824    2.5441 H   0  0  0  0  0  0  0  0  0  0  0  0
    0.7660    2.4335    3.9694 H   0  0  0  0  0  0  0  0  0  0  0  0
    4.4073   -4.7190    2.3144 H   0  0  0  0  0  0  0  0  0  0  0  0
    3.5218   -4.9225    3.7391 H   0  0  0  0  0  0  0  0  0  0  0  0
    3.8200   -2.7489   -0.6206 H   0  0  0  0  0  0  0  0  0  0  0  0
  1  2  1  0  0  0  0
  1  4  2  0  0  0  0
  1 16  1  0  0  0  0
  2  5  2  0  0  0  0
  2 17  1  0  0  0  0
  3  5  1  0  0  0  0
  3  6  2  0  0  0  0
  3 18  1  0  0  0  0
  4  6  1  0  0  0  0
  4 13  1  0  0  0  0
  5 14  1  0  0  0  0
  6 15  1  0  0  0  0
  7 14  1  0  0  0  0
  7 19  1  0  0  0  0
  7 20  1  0  0  0  0
  8 15  1  0  0  0  0
  8 21  1  0  0  0  0
  8 22  1  0  0  0  0
  9 14  2  0  0  0  0
 10 14  2  0  0  0  0
 11 15  2  0  0  0  0
 12 15  2  0  0  0  0
 13 23  1  0  0  0  0
M  END
$$$$
