
  -OEChem-05262117483D

 27 28  0     1  0  0  0  0  0999 V2000
    3.9476    0.6862   -1.0084 C   0  0  0  0  0  0  0  0  0  0  0  0
    3.9313    1.8915   -1.7073 C   0  0  0  0  0  0  0  0  0  0  0  0
    1.6328    2.0866   -1.6633 C   0  0  0  0  0  0  0  0  0  0  0  0
    0.9423   -0.9927    0.1681 C   0  0  0  0  0  0  0  0  0  0  0  0
    1.5067    0.8808   -0.9509 C   0  0  0  0  0  0  0  0  0  0  0  0
    0.3935    0.1134   -0.4365 C   0  0  0  0  0  0  0  0  0  0  0  0
    2.7003    0.1792   -0.6263 C   0  0  0  0  0  0  0  0  0  0  0  0
   -1.0591    0.4825   -0.5067 C   0  0  0  0  0  0  0  0  0  0  0  0
   -2.8814    2.0634    0.2368 C   0  0  0  0  0  0  0  0  0  0  0  0
   -1.4229    1.6539    0.4241 C   0  0  1  0  0  0  0  0  0  0  0  0
    2.8142    2.5836   -2.0339 N   0  0  0  0  0  0  0  0  0  0  0  0
    2.3327   -0.9579    0.0579 N   0  0  0  0  0  0  0  0  0  0  0  0
   -1.2369    1.2420    1.8242 N   0  0  0  0  0  0  0  0  0  0  0  0
   -3.0322    2.5791   -1.0908 O   0  0  0  0  0  0  0  0  0  0  0  0
    4.8841    0.1830   -0.7831 H   0  0  0  0  0  0  0  0  0  0  0  0
    4.8706    2.3363   -2.0307 H   0  0  0  0  0  0  0  0  0  0  0  0
    0.7518    2.6632   -1.9431 H   0  0  0  0  0  0  0  0  0  0  0  0
    0.4508   -1.8159    0.6705 H   0  0  0  0  0  0  0  0  0  0  0  0
   -1.3309    0.7633   -1.5287 H   0  0  0  0  0  0  0  0  0  0  0  0
   -1.6747   -0.3796   -0.2253 H   0  0  0  0  0  0  0  0  0  0  0  0
   -3.1433    2.8304    0.9818 H   0  0  0  0  0  0  0  0  0  0  0  0
   -3.5274    1.1903    0.4061 H   0  0  0  0  0  0  0  0  0  0  0  0
   -0.8004    2.5198    0.1467 H   0  0  0  0  0  0  0  0  0  0  0  0
    2.9629   -1.6713    0.3950 H   0  0  0  0  0  0  0  0  0  0  0  0
   -1.2970    2.0554    2.4353 H   0  0  0  0  0  0  0  0  0  0  0  0
   -0.2931    0.8720    1.9329 H   0  0  0  0  0  0  0  0  0  0  0  0
   -3.9634    2.8097   -1.2247 H   0  0  0  0  0  0  0  0  0  0  0  0
  1  2  1  0  0  0  0
  1  7  2  0  0  0  0
  1 15  1  0  0  0  0
  2 11  2  0  0  0  0
  2 16  1  0  0  0  0
  3  5  2  0  0  0  0
  3 11  1  0  0  0  0
  3 17  1  0  0  0  0
  4  6  2  0  0  0  0
  4 12  1  0  0  0  0
  4 18  1  0  0  0  0
  5  6  1  0  0  0  0
  5  7  1  0  0  0  0
  6  8  1  0  0  0  0
  7 12  1  0  0  0  0
  8 10  1  0  0  0  0
  8 19  1  0  0  0  0
  8 20  1  0  0  0  0
  9 10  1  0  0  0  0
  9 14  1  0  0  0  0
  9 21  1  0  0  0  0
  9 22  1  0  0  0  0
 10 13  1  0  0  0  0
 10 23  1  0  0  0  0
 12 24  1  0  0  0  0
 13 25  1  0  0  0  0
 13 26  1  0  0  0  0
 14 27  1  0  0  0  0
M  END
$$$$
