
  -OEChem-05262117483D

 23 23  0     0  0  0  0  0  0999 V2000
    2.1952   -0.8174    0.2672 C   0  0  0  0  0  0  0  0  0  0  0  0
    0.9928   -0.2998    0.7430 C   0  0  0  0  0  0  0  0  0  0  0  0
    1.7969   -0.5146    3.0268 C   0  0  0  0  0  0  0  0  0  0  0  0
    3.2077   -1.1858    1.1627 C   0  0  0  0  0  0  0  0  0  0  0  0
    0.8066   -0.1449    2.1173 C   0  0  0  0  0  0  0  0  0  0  0  0
    2.9936   -1.0338    2.5440 C   0  0  0  0  0  0  0  0  0  0  0  0
   -0.4091    2.2010    2.8088 N   0  0  0  0  0  0  0  0  0  0  0  0
    5.5724   -0.6402    3.2778 N   0  0  0  0  0  0  0  0  0  0  0  0
   -1.7389    0.3658    1.6707 O   0  0  0  0  0  0  0  0  0  0  0  0
   -0.9220    0.0524    4.0929 O   0  0  0  0  0  0  0  0  0  0  0  0
    3.8145   -1.0570    5.0435 O   0  0  0  0  0  0  0  0  0  0  0  0
    4.5053   -2.9829    3.5107 O   0  0  0  0  0  0  0  0  0  0  0  0
    4.4071   -1.6797    0.7520 O   0  0  0  0  0  0  0  0  0  0  0  0
   -0.7342    0.5361    2.7241 S   0  0  0  0  0  0  0  0  0  0  0  0
    4.2311   -1.5644    3.7344 S   0  0  0  0  0  0  0  0  0  0  0  0
    2.3492   -0.9399   -0.8030 H   0  0  0  0  0  0  0  0  0  0  0  0
    0.1979   -0.0282    0.0558 H   0  0  0  0  0  0  0  0  0  0  0  0
    1.6449   -0.4175    4.0972 H   0  0  0  0  0  0  0  0  0  0  0  0
   -1.1103    2.7051    2.2671 H   0  0  0  0  0  0  0  0  0  0  0  0
   -0.4134    2.5009    3.7832 H   0  0  0  0  0  0  0  0  0  0  0  0
    6.0053   -0.2588    4.1187 H   0  0  0  0  0  0  0  0  0  0  0  0
    6.2248   -1.2097    2.7410 H   0  0  0  0  0  0  0  0  0  0  0  0
    4.4108   -1.7743   -0.2143 H   0  0  0  0  0  0  0  0  0  0  0  0
  1  2  1  0  0  0  0
  1  4  2  0  0  0  0
  1 16  1  0  0  0  0
  2  5  2  0  0  0  0
  2 17  1  0  0  0  0
  3  5  1  0  0  0  0
  3  6  2  0  0  0  0
  3 18  1  0  0  0  0
  4  6  1  0  0  0  0
  4 13  1  0  0  0  0
  5 14  1  0  0  0  0
  6 15  1  0  0  0  0
  7 14  1  0  0  0  0
  7 19  1  0  0  0  0
  7 20  1  0  0  0  0
  8 15  1  0  0  0  0
  8 21  1  0  0  0  0
  8 22  1  0  0  0  0
  9 14  2  0  0  0  0
 10 14  2  0  0  0  0
 11 15  2  0  0  0  0
 12 15  2  0  0  0  0
 13 23  1  0  0  0  0
M  END
$$$$
