
  -OEChem-05262117483D

 23 23  0     0  0  0  0  0  0999 V2000
    2.0743   -1.0561    0.0577 C   0  0  0  0  0  0  0  0  0  0  0  0
    0.8584   -0.7021    0.6371 C   0  0  0  0  0  0  0  0  0  0  0  0
    1.7754   -1.1423    2.8447 C   0  0  0  0  0  0  0  0  0  0  0  0
    3.1460   -1.4670    0.8617 C   0  0  0  0  0  0  0  0  0  0  0  0
    0.7174   -0.7516    2.0248 C   0  0  0  0  0  0  0  0  0  0  0  0
    2.9823   -1.5087    2.2577 C   0  0  0  0  0  0  0  0  0  0  0  0
   -1.6854   -1.7613    2.8398 N   0  0  0  0  0  0  0  0  0  0  0  0
    5.5428   -0.9691    2.9731 N   0  0  0  0  0  0  0  0  0  0  0  0
   -0.5713    0.1418    4.1376 O   0  0  0  0  0  0  0  0  0  0  0  0
   -1.5661    0.5437    1.7975 O   0  0  0  0  0  0  0  0  0  0  0  0
    3.8982   -1.8030    4.7047 O   0  0  0  0  0  0  0  0  0  0  0  0
    4.7141   -3.4098    2.8907 O   0  0  0  0  0  0  0  0  0  0  0  0
    4.3588   -1.8076    0.3490 O   0  0  0  0  0  0  0  0  0  0  0  0
   -0.8455   -0.2883    2.7653 S   0  0  0  0  0  0  0  0  0  0  0  0
    4.3125   -2.0731    3.3263 S   0  0  0  0  0  0  0  0  0  0  0  0
    2.1975   -1.0055   -1.0222 H   0  0  0  0  0  0  0  0  0  0  0  0
    0.0296   -0.3681    0.0212 H   0  0  0  0  0  0  0  0  0  0  0  0
    1.6789   -1.1491    3.9259 H   0  0  0  0  0  0  0  0  0  0  0  0
   -1.7958   -2.0472    3.8121 H   0  0  0  0  0  0  0  0  0  0  0  0
   -2.5905   -1.6515    2.3838 H   0  0  0  0  0  0  0  0  0  0  0  0
    5.9369   -0.6239    3.8479 H   0  0  0  0  0  0  0  0  0  0  0  0
    6.2488   -1.4055    2.3825 H   0  0  0  0  0  0  0  0  0  0  0  0
    4.3326   -1.7544   -0.6201 H   0  0  0  0  0  0  0  0  0  0  0  0
  1  2  1  0  0  0  0
  1  4  2  0  0  0  0
  1 16  1  0  0  0  0
  2  5  2  0  0  0  0
  2 17  1  0  0  0  0
  3  5  1  0  0  0  0
  3  6  2  0  0  0  0
  3 18  1  0  0  0  0
  4  6  1  0  0  0  0
  4 13  1  0  0  0  0
  5 14  1  0  0  0  0
  6 15  1  0  0  0  0
  7 14  1  0  0  0  0
  7 19  1  0  0  0  0
  7 20  1  0  0  0  0
  8 15  1  0  0  0  0
  8 21  1  0  0  0  0
  8 22  1  0  0  0  0
  9 14  2  0  0  0  0
 10 14  2  0  0  0  0
 11 15  2  0  0  0  0
 12 15  2  0  0  0  0
 13 23  1  0  0  0  0
M  END
$$$$
