19
0 1 BrC9H7N2
C                    -1.705463054451    -1.561305688826     0.168162394391
C                     2.549600042616    -1.210542500938    -0.214255936109
C                     1.160861719826    -1.332818060813    -0.116748944214
C                     3.296890589630    -0.891461438409     0.918984865904
C                     0.560500305166    -1.128214502238     1.129892332669
C                     2.584457405867    -0.710776658006     2.108791356755
C                    -1.434345444816    -1.776238241500     2.680688339837
C                    -1.584043803847    -0.323771842786     2.378652059388
C                    -0.919896654114    -1.237246910281     1.335896512193
N                    -2.339203914498    -1.822778128320    -0.773239698766
N                     1.277086868562    -0.820134684662     2.226850808331
Br                    3.564592968925    -0.268239943964     3.708183326461
H                     3.047142558081    -1.363028073381    -1.168221304802
H                     0.559480289634    -1.580127844862    -0.984930204925
H                     4.375159436396    -0.786606709816     0.889404351963
H                    -0.653295228006    -2.069941827709     3.373432855756
H                    -2.310697656753    -2.414212916115     2.640939119573
H                    -2.565961762753     0.061628036164     2.125976688303
H                    -0.904297510088     0.365983319320     2.866852628546
