
  -OEChem-05262117483D

 44 46  0     1  0  0  0  0  0999 V2000
   -1.8226    5.5549    0.7578 C   0  0  0  0  0  0  0  0  0  0  0  0
   -2.3636    3.2614    0.1094 C   0  0  0  0  0  0  0  0  0  0  0  0
   -2.2587    4.5980   -0.2109 C   0  0  0  0  0  0  0  0  0  0  0  0
   -2.7939    2.2797   -0.8209 C   0  0  0  0  0  0  0  0  0  0  0  0
   -3.1534    2.7003   -2.0939 C   0  0  0  0  0  0  0  0  0  0  0  0
   -2.5896    5.0675   -1.5523 C   0  0  0  0  0  0  0  0  0  0  0  0
    1.5379   -0.3132    1.2981 C   0  0  0  0  0  0  0  0  0  0  0  0
   -2.9608    0.8428   -0.4290 C   0  0  0  0  0  0  0  0  0  0  0  0
    1.3884    0.0189   -1.6702 C   0  0  0  0  0  0  0  0  0  0  0  0
    0.5066   -0.9724   -0.8927 C   0  0  0  0  0  0  0  0  0  0  0  0
   -0.7220   -1.4854    1.2772 C   0  0  0  0  0  0  0  0  0  0  0  0
    2.3369    0.8173   -0.7490 C   0  0  0  0  0  0  0  0  0  0  0  0
   -2.1245   -1.1206    0.7711 C   0  0  0  0  0  0  0  0  0  0  0  0
   -0.6331    0.7861    0.5723 C   0  0  0  0  0  0  0  0  0  0  0  0
    0.2161   -0.5076    0.5444 C   0  0  1  0  0  0  0  0  0  0  0  0
   -3.6879    1.8160   -3.1841 C   0  0  0  0  0  0  0  0  0  0  0  0
    3.8414    0.4768    1.2044 C   0  0  0  0  0  0  0  0  0  0  0  0
   -1.4547    6.3052    1.5704 N   0  0  0  0  0  0  0  0  0  0  0  0
   -3.0307    4.0220   -2.3966 N   0  0  0  0  0  0  0  0  0  0  0  0
    2.5783    0.1643    0.5415 N   0  0  0  0  0  0  0  0  0  0  0  0
   -2.0059    0.2987    0.3816 N   0  0  0  0  0  0  0  0  0  0  0  0
   -2.5243    6.2135   -1.9812 O   0  0  0  0  0  0  0  0  0  0  0  0
    1.6533   -0.5929    2.4923 O   0  0  0  0  0  0  0  0  0  0  0  0
   -3.9378    0.1866   -0.8108 O   0  0  0  0  0  0  0  0  0  0  0  0
   -2.1260    2.9551    1.1234 H   0  0  0  0  0  0  0  0  0  0  0  0
    1.9696   -0.5299   -2.4165 H   0  0  0  0  0  0  0  0  0  0  0  0
    0.7689    0.7309   -2.2247 H   0  0  0  0  0  0  0  0  0  0  0  0
   -0.4305   -1.1457   -1.4320 H   0  0  0  0  0  0  0  0  0  0  0  0
    1.0116   -1.9415   -0.8271 H   0  0  0  0  0  0  0  0  0  0  0  0
   -0.6300   -1.3234    2.3526 H   0  0  0  0  0  0  0  0  0  0  0  0
   -0.4689   -2.5290    1.0743 H   0  0  0  0  0  0  0  0  0  0  0  0
    3.3078    0.9461   -1.2338 H   0  0  0  0  0  0  0  0  0  0  0  0
    1.9451    1.8301   -0.5789 H   0  0  0  0  0  0  0  0  0  0  0  0
   -2.4314   -1.7058   -0.1004 H   0  0  0  0  0  0  0  0  0  0  0  0
   -2.8985   -1.2436    1.5335 H   0  0  0  0  0  0  0  0  0  0  0  0
   -0.5203    1.2770    1.5467 H   0  0  0  0  0  0  0  0  0  0  0  0
   -0.3640    1.5006   -0.2056 H   0  0  0  0  0  0  0  0  0  0  0  0
   -4.7590    1.6524   -3.0341 H   0  0  0  0  0  0  0  0  0  0  0  0
   -3.2199    0.8321   -3.1613 H   0  0  0  0  0  0  0  0  0  0  0  0
   -3.5303    2.2720   -4.1662 H   0  0  0  0  0  0  0  0  0  0  0  0
    4.6730    0.2298    0.5372 H   0  0  0  0  0  0  0  0  0  0  0  0
    3.9154   -0.1102    2.1184 H   0  0  0  0  0  0  0  0  0  0  0  0
    3.9022    1.5417    1.4653 H   0  0  0  0  0  0  0  0  0  0  0  0
   -3.2775    4.3408   -3.3301 H   0  0  0  0  0  0  0  0  0  0  0  0
  1  3  1  0  0  0  0
  1 18  3  0  0  0  0
  2  3  2  0  0  0  0
  2  4  1  0  0  0  0
  2 25  1  0  0  0  0
  3  6  1  0  0  0  0
  4  5  2  0  0  0  0
  4  8  1  0  0  0  0
  5 16  1  0  0  0  0
  5 19  1  0  0  0  0
  6 19  1  0  0  0  0
  6 22  2  0  0  0  0
  7 15  1  0  0  0  0
  7 20  1  0  0  0  0
  7 23  2  0  0  0  0
  8 21  1  0  0  0  0
  8 24  2  0  0  0  0
  9 10  1  0  0  0  0
  9 12  1  0  0  0  0
  9 26  1  0  0  0  0
  9 27  1  0  0  0  0
 10 15  1  0  0  0  0
 10 28  1  0  0  0  0
 10 29  1  0  0  0  0
 11 13  1  0  0  0  0
 11 15  1  0  0  0  0
 11 30  1  0  0  0  0
 11 31  1  0  0  0  0
 12 20  1  0  0  0  0
 12 32  1  0  0  0  0
 12 33  1  0  0  0  0
 13 21  1  0  0  0  0
 13 34  1  0  0  0  0
 13 35  1  0  0  0  0
 14 15  1  0  0  0  0
 14 21  1  0  0  0  0
 14 36  1  0  0  0  0
 14 37  1  0  0  0  0
 16 38  1  0  0  0  0
 16 39  1  0  0  0  0
 16 40  1  0  0  0  0
 17 20  1  0  0  0  0
 17 41  1  0  0  0  0
 17 42  1  0  0  0  0
 17 43  1  0  0  0  0
 19 44  1  0  0  0  0
M  END
$$$$
