31
0 1 BrC14H10N5O
C                    -6.980389878880    -0.022117850538     2.959332288770
C                    -1.714591128498    -1.911199639644     2.425829800543
C                    -1.413668787244    -2.194757533447     3.755399353587
C                    -2.835937757225    -0.353330507000     4.542595471564
C                    -3.890077800675     0.725146491621     1.203248989030
C                    -7.280415920940     0.598661411704     1.718440278860
C                    -3.135461155020    -0.048460228584     3.204309110418
C                    -3.973661743275     0.954365495457     2.573054092070
C                    -2.573044349917    -0.838272561648     2.169748613179
C                    -1.976135657803    -1.416049444388     4.786930274253
C                    -6.853955166049     1.811896228704     1.219364805808
C                    -8.223976348020     0.849553476756    -0.199042440559
C                    -4.671513189702     1.991552701367     3.302656356348
C                    -9.011532253582     0.779042126881    -1.457541853761
N                    -6.734771112357    -0.537149858027     3.976769865622
N                    -8.152098191619     0.013624910855     0.779104882007
N                    -5.548999486611     2.873648893796     2.948135486379
N                    -3.050724272864    -0.332599598181     0.966471794720
N                    -5.970809625795     2.803478799721     1.587401507334
O                    -7.440584051085     1.985953207421    -0.003235691097
Br                   -1.533818446468    -1.856975851011     6.602505448760
H                    -1.292716292107    -2.511807280460     1.624387173700
H                    -0.751722347944    -3.017838809112     4.001693741821
H                    -3.269591136389     0.206244896945     5.364220467420
H                    -4.349626842360     1.257775689281     0.385357142598
H                    -4.419098316682     2.069825678603     4.359477751309
H                    -9.725080657150     1.607342079405    -1.518779246016
H                    -8.358986769140     0.832808658778    -2.335054244398
H                    -9.558198749898    -0.164260918986    -1.474089034635
H                    -2.837415638047    -0.704305498067     0.051176061281
H                    -6.311534538959     3.719709853880     1.306131844583
