31
0 1 BrC14H10N5O
C                    -8.925646607078     0.475125473424     0.777916942670
C                    -1.097093357641     0.642698523155    -0.569597692226
C                    -0.174129640040     1.559535559305    -0.074986246997
C                    -1.545364585195     1.975090686274     1.919082205164
C                    -4.225347886359    -0.341629959655     0.987888384910
C                    -8.944481362824     0.626526872889     2.185416343863
C                    -2.482800966126     1.046018004075     1.433121590222
C                    -3.757962391656     0.567679604758     1.933681410641
C                    -2.242449476097     0.395731227888     0.194713802727
C                    -0.410096087237     2.208749772663     1.154641030044
C                    -7.829477653232     0.670387186235     2.997400355370
C                    -9.638045246153     0.836140152117     4.201068600920
C                    -4.331069423098     0.961272385203     3.213134701479
C                   -10.373922964763     0.993924127257     5.481707058207
N                    -8.804306066293     0.340223427797    -0.376630126669
N                   -10.085782438650     0.734146938707     2.994457680278
N                    -5.561588279071     0.959001045488     3.611702615556
N                    -3.317753300617    -0.446970552304    -0.039632668984
N                    -6.501689919233     0.527020247317     2.701627389928
O                    -8.241513566537     0.800361988769     4.277142381170
Br                    0.891474270957     3.473970662500     1.779937894008
H                    -0.923950236216     0.143363070632    -1.519056116825
H                     0.727907590137     1.780602651712    -0.635183497666
H                    -1.701012092015     2.502934534418     2.854129123443
H                    -5.101093814674    -0.975779423885     1.000302400721
H                    -3.637741478721     1.340159563803     3.961494943182
H                   -10.133221566887     0.181060543848     6.174212777618
H                   -10.111466091612     1.938722691423     5.968817950944
H                   -11.444067930616     0.983860891244     5.272649917768
H                    -3.439263051108    -1.031241820572    -0.855604935667
H                    -6.287783218916     0.627824288407     1.707068361146
