19
0 1 BrC9H7N2
C                    -2.473711204510    -3.037956687300     2.509586852884
C                     1.675804518622    -0.429508947919     2.601995396983
C                     0.518341047840    -0.763701104916     1.897931558273
C                     1.915314950267    -1.002593256492     3.851569067045
C                    -0.377771583079    -1.675050922648     2.474577589314
C                     0.951112733103    -1.897181999922     4.324035112771
C                    -2.402551586093    -1.085022391540     0.912316238197
C                    -1.676631442682    -2.216979594853     0.259766388043
C                    -1.644874650419    -2.091853854771     1.790173049113
N                    -3.200828240936    -3.794205913443     3.012422013598
N                    -0.149975838394    -2.228272760414     3.676937592381
Br                    1.225337729529    -2.720909750218     6.042141496686
H                     2.389276953509     0.273874813407     2.181186561625
H                     0.327001824061    -0.321026677796     0.925628876288
H                     2.800884122146    -0.771129504095     4.431972192781
H                    -1.980173639761    -0.086757772881     0.863719841733
H                    -3.485245185148    -1.123904697823     0.960180586782
H                    -2.256712119576    -3.039342856420    -0.144284992585
H                    -0.739500740967    -2.020812533919    -0.250755749003
