31
0 1 BrC14H10N5O
C                    -5.431898020415     5.959971415049     3.681782230912
C                    -1.674857460751    -2.152976457906     1.417984005143
C                    -0.394832827862    -2.062499273039     1.956848243871
C                    -0.888307425815     0.126734994438     2.953256847549
C                    -4.334261176611     0.301028912252     1.725342749977
C                    -5.860885913993     5.570267372712     2.385158875288
C                    -2.187271866710     0.043853571628     2.420184527476
C                    -3.332994890185     0.932421310296     2.456447052017
C                    -2.558236505742    -1.095301060887     1.659233011472
C                    -0.021749336820    -0.930818628320     2.711694690022
C                    -5.628823947927     4.398765867719     1.702926739831
C                    -6.867060742390     5.730323931134     0.487853825790
C                    -3.384771377096     2.176990032883     3.212050851300
C                    -7.633138567371     6.100962432959    -0.730291380009
N                    -5.105755167386     6.311220720998     4.745001039676
N                    -6.659381044939     6.396628869737     1.570845430991
N                    -4.123167513553     3.221249623421     3.038414325043
N                    -3.871707196844    -0.907829344628     1.256524566185
N                    -4.997563129796     3.208845196301     1.973043341980
O                    -6.257210021444     4.473032782966     0.496941195525
Br                    1.760868749800    -0.857066311452     3.418826015561
H                    -1.966323447584    -3.020615909947     0.832194225827
H                     0.321436880094    -2.860944878290     1.796107596903
H                    -0.564826810415     0.988129557423     3.528183751169
H                    -5.365340132313     0.587587785892     1.570269008839
H                    -2.697746049717     2.270092841607     4.050965685911
H                    -6.988300496084     6.100850305600    -1.615288998167
H                    -8.452194249117     5.396828790484    -0.909910492762
H                    -8.045794099564     7.100431988127    -0.589891034993
H                    -4.416336011642    -1.562251265000     0.712067961527
H                    -4.743703206108     2.657086496480     1.150093042966
