
  -OEChem-05262117483D

 35 37  0     0  0  0  0  0  0999 V2000
    4.3653   -3.9499    4.5159 C   0  0  0  0  0  0  0  0  0  0  0  0
    4.1004   -1.6028    3.8241 C   0  0  0  0  0  0  0  0  0  0  0  0
    5.6675   -3.0403    2.6349 C   0  0  0  0  0  0  0  0  0  0  0  0
    4.4195   -0.5535    2.9676 C   0  0  0  0  0  0  0  0  0  0  0  0
    5.9981   -1.9764    1.7999 C   0  0  0  0  0  0  0  0  0  0  0  0
    0.6588    0.7943    0.4720 C   0  0  0  0  0  0  0  0  0  0  0  0
    1.2342    2.0510    0.6416 C   0  0  0  0  0  0  0  0  0  0  0  0
    2.8423   -0.1916    0.2976 C   0  0  0  0  0  0  0  0  0  0  0  0
    4.7127   -2.8568    3.6505 C   0  0  0  0  0  0  0  0  0  0  0  0
    5.3606   -0.7371    1.9441 C   0  0  0  0  0  0  0  0  0  0  0  0
    1.4555   -0.3493    0.2911 C   0  0  0  0  0  0  0  0  0  0  0  0
    3.4405    1.0560    0.5293 C   0  0  0  0  0  0  0  0  0  0  0  0
    2.6253    2.1943    0.6690 C   0  0  0  0  0  0  0  0  0  0  0  0
    5.8039    0.3902    1.0538 C   0  0  0  0  0  0  0  0  0  0  0  0
    5.2661    2.5576    0.0424 C   0  0  0  0  0  0  0  0  0  0  0  0
    4.5471    3.6097    0.8752 C   0  0  0  0  0  0  0  0  0  0  0  0
    0.8327   -1.7142    0.1086 C   0  0  0  0  0  0  0  0  0  0  0  0
    4.0796   -4.8376    5.2151 N   0  0  0  0  0  0  0  0  0  0  0  0
    4.8491    1.2449    0.5387 N   0  0  0  0  0  0  0  0  0  0  0  0
    7.0042    0.5581    0.8337 O   0  0  0  0  0  0  0  0  0  0  0  0
    3.1201    3.4684    0.7976 O   0  0  0  0  0  0  0  0  0  0  0  0
    3.3765   -1.4629    4.6209 H   0  0  0  0  0  0  0  0  0  0  0  0
    6.1461   -4.0072    2.5148 H   0  0  0  0  0  0  0  0  0  0  0  0
    3.9322    0.4073    3.0956 H   0  0  0  0  0  0  0  0  0  0  0  0
    6.7546   -2.0935    1.0302 H   0  0  0  0  0  0  0  0  0  0  0  0
   -0.4247    0.7033    0.4613 H   0  0  0  0  0  0  0  0  0  0  0  0
    0.6230    2.9417    0.7546 H   0  0  0  0  0  0  0  0  0  0  0  0
    3.4787   -1.0540    0.1276 H   0  0  0  0  0  0  0  0  0  0  0  0
    5.0044    2.6532   -1.0169 H   0  0  0  0  0  0  0  0  0  0  0  0
    6.3466    2.6448    0.1503 H   0  0  0  0  0  0  0  0  0  0  0  0
    4.8592    3.5278    1.9238 H   0  0  0  0  0  0  0  0  0  0  0  0
    4.7662    4.6187    0.5179 H   0  0  0  0  0  0  0  0  0  0  0  0
   -0.0984   -1.6547   -0.4631 H   0  0  0  0  0  0  0  0  0  0  0  0
    1.5085   -2.3952   -0.4167 H   0  0  0  0  0  0  0  0  0  0  0  0
    0.5947   -2.1709    1.0768 H   0  0  0  0  0  0  0  0  0  0  0  0
  1  9  1  0  0  0  0
  1 18  3  0  0  0  0
  2  4  1  0  0  0  0
  2  9  2  0  0  0  0
  2 22  1  0  0  0  0
  3  5  2  0  0  0  0
  3  9  1  0  0  0  0
  3 23  1  0  0  0  0
  4 10  2  0  0  0  0
  4 24  1  0  0  0  0
  5 10  1  0  0  0  0
  5 25  1  0  0  0  0
  6  7  2  0  0  0  0
  6 11  1  0  0  0  0
  6 26  1  0  0  0  0
  7 13  1  0  0  0  0
  7 27  1  0  0  0  0
  8 11  2  0  0  0  0
  8 12  1  0  0  0  0
  8 28  1  0  0  0  0
 10 14  1  0  0  0  0
 11 17  1  0  0  0  0
 12 13  2  0  0  0  0
 12 19  1  0  0  0  0
 13 21  1  0  0  0  0
 14 19  1  0  0  0  0
 14 20  2  0  0  0  0
 15 16  1  0  0  0  0
 15 19  1  0  0  0  0
 15 29  1  0  0  0  0
 15 30  1  0  0  0  0
 16 21  1  0  0  0  0
 16 31  1  0  0  0  0
 16 32  1  0  0  0  0
 17 33  1  0  0  0  0
 17 34  1  0  0  0  0
 17 35  1  0  0  0  0
M  END
$$$$
