
  -OEChem-05262117483D

 31 33  0     0  0  0  0  0  0999 V2000
   -7.9787    3.2897    5.1373 C   0  0  0  0  0  0  0  0  0  0  0  0
   -2.5366   -1.0984    0.1893 C   0  0  0  0  0  0  0  0  0  0  0  0
   -2.8700   -0.0561   -0.6708 C   0  0  0  0  0  0  0  0  0  0  0  0
   -3.9542    1.1903    1.1468 C   0  0  0  0  0  0  0  0  0  0  0  0
   -3.2511   -1.3047    3.7373 C   0  0  0  0  0  0  0  0  0  0  0  0
   -8.2811    2.7767    3.8488 C   0  0  0  0  0  0  0  0  0  0  0  0
   -3.6547    0.1266    2.0229 C   0  0  0  0  0  0  0  0  0  0  0  0
   -3.8675   -0.0999    3.4419 C   0  0  0  0  0  0  0  0  0  0  0  0
   -2.9289   -0.9928    1.5277 C   0  0  0  0  0  0  0  0  0  0  0  0
   -3.5649    1.0683   -0.1802 C   0  0  0  0  0  0  0  0  0  0  0  0
   -7.5466    1.9267    3.0521 C   0  0  0  0  0  0  0  0  0  0  0  0
   -9.4085    2.4654    2.0399 C   0  0  0  0  0  0  0  0  0  0  0  0
   -4.5463    0.7375    4.4346 C   0  0  0  0  0  0  0  0  0  0  0  0
  -10.3749    2.4236    0.9121 C   0  0  0  0  0  0  0  0  0  0  0  0
   -7.7600    3.7291    6.1956 N   0  0  0  0  0  0  0  0  0  0  0  0
   -9.4674    3.0984    3.1605 N   0  0  0  0  0  0  0  0  0  0  0  0
   -5.6454    1.4022    4.3115 N   0  0  0  0  0  0  0  0  0  0  0  0
   -2.7014   -1.8438    2.5975 N   0  0  0  0  0  0  0  0  0  0  0  0
   -6.3246    1.3193    3.1288 N   0  0  0  0  0  0  0  0  0  0  0  0
   -8.2389    1.7130    1.9002 O   0  0  0  0  0  0  0  0  0  0  0  0
   -3.9807    2.4874   -1.4046 Br  0  0  0  0  0  0  0  0  0  0  0  0
   -1.9839   -1.9596   -0.1767 H   0  0  0  0  0  0  0  0  0  0  0  0
   -2.5875   -0.1007   -1.7170 H   0  0  0  0  0  0  0  0  0  0  0  0
   -4.4629    2.0813    1.4960 H   0  0  0  0  0  0  0  0  0  0  0  0
   -3.1817   -1.8204    4.6862 H   0  0  0  0  0  0  0  0  0  0  0  0
   -4.1011    0.8151    5.4247 H   0  0  0  0  0  0  0  0  0  0  0  0
   -9.9140    2.7853   -0.0128 H   0  0  0  0  0  0  0  0  0  0  0  0
  -10.7287    1.4026    0.7347 H   0  0  0  0  0  0  0  0  0  0  0  0
  -11.2260    3.0585    1.1600 H   0  0  0  0  0  0  0  0  0  0  0  0
   -2.2091   -2.7251    2.5503 H   0  0  0  0  0  0  0  0  0  0  0  0
   -6.1265    0.5771    2.4588 H   0  0  0  0  0  0  0  0  0  0  0  0
  1  6  1  0  0  0  0
  1 15  3  0  0  0  0
  2  3  1  0  0  0  0
  2  9  2  0  0  0  0
  2 22  1  0  0  0  0
  3 10  2  0  0  0  0
  3 23  1  0  0  0  0
  4  7  2  0  0  0  0
  4 10  1  0  0  0  0
  4 24  1  0  0  0  0
  5  8  2  0  0  0  0
  5 18  1  0  0  0  0
  5 25  1  0  0  0  0
  6 11  2  0  0  0  0
  6 16  1  0  0  0  0
  7  8  1  0  0  0  0
  7  9  1  0  0  0  0
  8 13  1  0  0  0  0
  9 18  1  0  0  0  0
 10 21  1  0  0  0  0
 11 19  1  0  0  0  0
 11 20  1  0  0  0  0
 12 14  1  0  0  0  0
 12 16  2  0  0  0  0
 12 20  1  0  0  0  0
 13 17  2  0  0  0  0
 13 26  1  0  0  0  0
 14 27  1  0  0  0  0
 14 28  1  0  0  0  0
 14 29  1  0  0  0  0
 17 19  1  0  0  0  0
 18 30  1  0  0  0  0
 19 31  1  0  0  0  0
M  END
$$$$
