44
0 1 C17H20N4O3
C                    -1.822578797849     5.554925064846     0.757848690721
C                    -2.363644297354     3.261386608870     0.109437223317
C                    -2.258730713672     4.597970506385    -0.210923500835
C                    -2.793932887349     2.279745436105    -0.820925211914
C                    -3.153428785114     2.700327577238    -2.093927403920
C                    -2.589645766163     5.067474456215    -1.552256499226
C                     1.537882680907    -0.313206481101     1.298087684217
C                    -2.960797389963     0.842831513278    -0.429017183537
C                     1.388397410955     0.018906819099    -1.670181312245
C                     0.506626477299    -0.972351583251    -0.892710725260
C                    -0.722049540205    -1.485426233031     1.277179649202
C                     2.336922403997     0.817265051900    -0.748971012748
C                    -2.124471538979    -1.120627132933     0.771107051106
C                    -0.633093655151     0.786134868956     0.572257516807
C                     0.216063965301    -0.507594368876     0.544417969430
C                    -3.687881638569     1.815997039872    -3.184148580547
C                     3.841397990008     0.476776268192     1.204357218403
N                    -1.454714872682     6.305237494197     1.570441224271
N                    -3.030666011781     4.022034842831    -2.396576244033
N                     2.578334560951     0.164306396476     0.541489058237
N                    -2.005868082647     0.298692499615     0.381641493063
O                    -2.524283395216     6.213522024074    -1.981187305167
O                     1.653344883107    -0.592929702831     2.492277720328
O                    -3.937761218281     0.186644204813    -0.810789960174
H                    -2.125951367173     2.955095092760     1.123435058340
H                     1.969604870176    -0.529896521252    -2.416474683015
H                     0.768889867386     0.730926112198    -2.224715509493
H                    -0.430470574038    -1.145671301695    -1.431999877413
H                     1.011595963165    -1.941532045609    -0.827106927794
H                    -0.630013330483    -1.323445353434     2.352591547584
H                    -0.468925829019    -2.529039153143     1.074324254002
H                     3.307824655536     0.946083967362    -1.233791568307
H                     1.945119983516     1.830134183683    -0.578923286958
H                    -2.431404158572    -1.705795954543    -0.100382757821
H                    -2.898486228354    -1.243606297410     1.533519572471
H                    -0.520274116315     1.277014847543     1.546734587951
H                    -0.364039656717     1.500576751201    -0.205641285668
H                    -4.758951971319     1.652391247564    -3.034118871914
H                    -3.219924574269     0.832127374870    -3.161302714462
H                    -3.530250542725     2.271972664272    -4.166191938577
H                     4.673019709594     0.229760045200     0.537221265200
H                     3.915410090553    -0.110177092434     2.118376946834
H                     3.902202113131     1.541741451711     1.465339623925
H                    -3.277549241957     4.340809892763    -3.330078319405
