27
0 1 BrC13Cl3H6N4
C                     1.666652636893    -8.133140661468    -4.351901415348
C                     2.163503417200    -0.545823617563     0.059673588930
C                     2.535075752757    -2.040445019019     1.924811172899
C                     1.093958802892     0.045351111384     0.737341073518
C                     1.467689604666    -1.457964798646     2.613325985957
C                     1.867993257036    -7.011545652834    -3.493508837637
C                     2.893379387807    -1.592343810811     0.644079236458
C                     0.791069816870    -6.410726775058    -2.797362193804
C                     1.029939891173    -5.319562271260    -1.970840483087
C                     0.754251688008    -0.420973605266     2.008888266325
C                     2.362617767650    -4.837902020212    -1.850791949628
C                     3.139837011335    -6.438752201223    -3.288305012185
C                     4.003858076613    -2.251376568639    -0.105247251081
N                     1.498584102664    -9.049227472503    -5.052291123766
N                     3.377989812388    -5.407060781109    -2.509296297553
N                     3.875937148419    -3.262777799882    -0.890299068915
N                     2.615792486227    -3.763287650096    -1.040463278521
Cl                   -0.802877183927    -7.049127267991    -2.990862460893
Cl                   -0.256017892478    -4.536905472439    -1.087306394466
Cl                    4.516398172742    -7.124258763549    -4.112076811193
Br                   -0.722089889967     0.369256444413     2.936253537086
H                     2.427947890538    -0.192561490841    -0.933647387434
H                     3.089426473683    -2.853308321963     2.386721387422
H                     0.531907775661     0.852942592202     0.279837804471
H                     1.193857987995    -1.809744800544     3.602608890402
H                     5.020438418134    -1.874240950731    -0.005465850242
H                     1.835476619216    -3.337973188296    -0.543822909656
