40
0 1 C18H17N3O2
C                     0.939691818871    -1.431835345635    -0.600237999951
C                    -0.271464929806    -1.192661989289     0.084954765581
C                     1.780215092907    -2.480037327560    -0.231251933343
C                    -0.666722168375    -1.995427765537     1.155551087844
C                     6.897447441937    -4.669854134478     3.624549858166
C                     1.406128816342    -3.307765594068     0.842984524868
C                     2.003046933101    -4.447559075770     1.490312946442
C                     0.179697182266    -3.045920910156     1.524051057559
C                     5.923229953382    -5.174555200495     2.716924638355
C                     1.158655495367    -4.836819662312     2.501598584215
C                     7.852550181791    -4.118984415329     2.814745368836
C                     4.714412686569    -5.954523953715     3.149497088398
C                     3.311030606874    -5.135816253611     1.210892816252
C                     1.402774007455    -5.993407000846     3.417766782705
C                     9.298529132492    -2.564982218694     4.292419489112
C                    10.023036483877    -3.879270033494     4.200996040141
C                     2.501526769576    -6.864272497083     2.781246313524
C                     9.129335763308    -3.430468459248     3.051331027454
N                     6.261100209499    -4.958300752565     1.458439687567
N                     0.057361581945    -3.991613572137     2.532978782225
N                     3.629357263788    -6.043936391700     2.325246029467
O                     4.771790191457    -6.526574705111     4.244601073109
O                     7.486646381931    -4.285857347735     1.516670236702
H                     1.217241106535    -0.785368943153    -1.428571793358
H                    -0.907090957207    -0.367753110166    -0.225682332617
H                     2.710557985623    -2.654362953671    -0.766505082661
H                    -1.599293458076    -1.805990267067     1.682015910761
H                     6.869911441191    -4.739691005664     4.701653551965
H                     3.267911162790    -5.716245086776     0.278973589293
H                     4.115536741133    -4.414669696107     1.087728540294
H                     1.728366616728    -5.655558848461     4.409547795177
H                     0.496412478699    -6.595831513405     3.558337379905
H                     8.445617116149    -2.493263789142     4.960199752612
H                     9.868671930162    -1.647755919787     4.181125695178
H                    11.094466477210    -3.871625449549     4.025667781969
H                     9.664718725088    -4.707430119190     4.804443224703
H                     2.877081301230    -7.600408660551     3.489486588117
H                     2.096130178144    -7.382027475871     1.904844591767
H                     9.622368175491    -3.097262794407     2.143752306445
H                    -0.720448070045    -4.070570166953     3.172216195375
