40
0 1 C18H17N3O2
C                    -0.069933387817    -0.009480992911     1.882505640408
C                    -0.560743943646    -0.776861842689     0.803690645718
C                    -0.117093867211    -0.491937629203     3.188783326229
C                    -1.107134415837    -2.044337207363     1.008122480996
C                     2.903749250263    -4.057284733862     8.047935288144
C                    -0.664960643276    -1.765870072411     3.425492674729
C                    -0.870077260323    -2.570162366159     4.602553562037
C                    -1.151873851282    -2.526092234050     2.320245056112
C                     1.655310517148    -3.421334474292     7.793770833555
C                    -1.456274786556    -3.746266114771     4.201714107157
C                     3.733796942819    -3.029979965278     8.404435947644
C                     0.398974491511    -4.169948747515     7.450806341892
C                    -0.517056549537    -2.284592350097     6.036735538721
C                    -1.844802806626    -4.861558543450     5.119423888822
C                     5.734175150579    -4.008215252972     9.720968844387
C                     6.145757934731    -3.954295280852     8.275805990781
C                    -1.844454629189    -4.302420335132     6.554225098094
C                     5.144417806916    -2.939561508499     8.807191542620
N                     1.716811894747    -2.116274748031     7.987735141431
N                    -1.625077215491    -3.730248746120     2.823546014483
N                    -0.627464934747    -3.526758930946     6.819785828424
O                     0.332303523532    -5.354774966425     7.799183004061
O                     3.037130842761    -1.863469606818     8.375220682397
H                     0.350782481689     0.973203251638     1.686484071457
H                    -0.511103184207    -0.374228757529    -0.204482646874
H                     0.264079584484     0.108278891445     4.011506015541
H                    -1.481818763193    -2.632896557322     0.173884435196
H                     3.111542085801    -5.114845855062     7.983480069814
H                     0.491842647185    -1.888181579294     6.122428151961
H                    -1.186268311477    -1.529758874080     6.472006104608
H                    -2.842182132979    -5.252087477806     4.880916300909
H                    -1.139942132873    -5.699469819941     5.050349974755
H                     5.066348848662    -4.803879180006    10.036017285523
H                     6.440739759076    -3.677585093616    10.476121239634
H                     7.137796122034    -3.587416805363     8.030956505046
H                     5.763809381299    -4.716246132143     7.603429018858
H                    -2.698038499502    -3.628159936847     6.684741370626
H                    -1.907299757062    -5.104857026657     7.286872994183
H                     5.495602076986    -1.922471362944     8.948737085329
H                    -2.045322688791    -4.469468282317     2.278750731118
