
  -OEChem-05262117483D

 16 16  0     0  0  0  0  0  0999 V2000
    0.1855    1.2454   -2.9347 C   0  0  0  0  0  0  0  0  0  0  0  0
   -0.0369    0.2469   -1.0698 C   0  0  0  0  0  0  0  0  0  0  0  0
    0.5932    2.2711   -3.9416 C   0  0  0  0  0  0  0  0  0  0  0  0
   -0.0234   -0.1588    0.3728 C   0  0  0  0  0  0  0  0  0  0  0  0
    0.5038    1.3345   -1.6020 N   0  0  0  0  0  0  0  0  0  0  0  0
   -0.5182    0.1615   -3.2565 N   0  0  0  0  0  0  0  0  0  0  0  0
   -0.6503   -0.4643   -2.0515 N   0  0  0  0  0  0  0  0  0  0  0  0
   -1.2609    0.2651    1.0547 N   0  0  0  0  0  0  0  0  0  0  0  0
    1.6827    2.3720   -3.9659 H   0  0  0  0  0  0  0  0  0  0  0  0
    0.2384    1.9874   -4.9342 H   0  0  0  0  0  0  0  0  0  0  0  0
    0.1784    3.2495   -3.6796 H   0  0  0  0  0  0  0  0  0  0  0  0
    0.1755   -1.2418    0.4398 H   0  0  0  0  0  0  0  0  0  0  0  0
    0.8171    0.3591    0.8395 H   0  0  0  0  0  0  0  0  0  0  0  0
   -1.1362   -1.3504   -1.9997 H   0  0  0  0  0  0  0  0  0  0  0  0
   -1.1855    0.0554    2.0488 H   0  0  0  0  0  0  0  0  0  0  0  0
   -2.0565   -0.2648    0.7033 H   0  0  0  0  0  0  0  0  0  0  0  0
  1  3  1  0  0  0  0
  1  5  1  0  0  0  0
  1  6  2  0  0  0  0
  2  4  1  0  0  0  0
  2  5  2  0  0  0  0
  2  7  1  0  0  0  0
  3  9  1  0  0  0  0
  3 10  1  0  0  0  0
  3 11  1  0  0  0  0
  4  8  1  0  0  0  0
  4 12  1  0  0  0  0
  4 13  1  0  0  0  0
  6  7  1  0  0  0  0
  7 14  1  0  0  0  0
  8 15  1  0  0  0  0
  8 16  1  0  0  0  0
M  END
$$$$
