23
0 1 C9H9N3S2
C                     0.243993504555     1.240839880664    -0.673489064291
C                    -0.101713336875    -0.135069503756    -0.571050632926
C                    -0.841926773709     2.071353540213    -0.541131964163
C                    -7.997789503142    -1.766228965687    -0.755098207500
C                    -1.453069083931    -0.356283337003    -0.364214025899
C                    -7.402351997759    -2.841386446250    -0.158409721900
C                    -5.582804231721    -1.618968372604    -0.457485996703
C                    -2.045843859550    -1.674067515595    -0.188615829140
C                    -8.101086334027    -4.079558786929     0.319943975931
N                    -6.027902634431    -2.745307301471     0.010299063837
N                    -3.273236553525    -2.081751142138    -0.190847538774
N                    -4.268102356920    -1.178834260684    -0.415742360449
S                    -2.299953147415     1.180140254165    -0.273090350526
S                    -6.806231536268    -0.548325085863    -1.150840505776
H                     1.253316947939     1.604048078271    -0.835575863999
H                     0.612733382050    -0.948763974761    -0.647876844960
H                    -0.869210584471     3.153304698350    -0.567136002176
H                    -9.043858218269    -1.607923581659    -0.980458006607
H                    -1.324077386819    -2.473386157408    -0.027521157325
H                    -7.700166359543    -4.962947462944    -0.188057928190
H                    -7.937081240471    -4.218326715502     1.393719584293
H                    -9.176376833865    -4.024704261395     0.132750241752
H                    -4.066988658549    -0.331729884852    -0.944747001139
