
  -OEChem-05262117483D

 36 39  0     0  0  0  0  0  0999 V2000
    4.2325   -3.0513    6.2982 C   0  0  0  0  0  0  0  0  0  0  0  0
    3.9992   -3.1302    4.2178 C   0  0  0  0  0  0  0  0  0  0  0  0
    2.0393   -3.0073    1.6386 C   0  0  0  0  0  0  0  0  0  0  0  0
    3.8281   -1.5644    1.3376 C   0  0  0  0  0  0  0  0  0  0  0  0
   -0.2402   -0.1777    0.6031 C   0  0  0  0  0  0  0  0  0  0  0  0
   -0.4518   -1.2039   -0.5290 C   0  0  0  0  0  0  0  0  0  0  0  0
    4.8925   -4.6177    8.2224 C   0  0  0  0  0  0  0  0  0  0  0  0
    6.0093   -3.6321    8.0578 C   0  0  0  0  0  0  0  0  0  0  0  0
    0.5039   -0.9841    1.6756 C   0  0  0  0  0  0  0  0  0  0  0  0
    0.7655   -2.1674   -0.4486 C   0  0  0  0  0  0  0  0  0  0  0  0
    4.5832   -3.2141    7.7101 C   0  0  0  0  0  0  0  0  0  0  0  0
    1.5279   -1.8003    0.8525 C   0  0  0  0  0  0  0  0  0  0  0  0
    4.1805   -3.5755    2.7941 C   0  0  0  0  0  0  0  0  0  0  0  0
    4.6674   -3.7265    5.2637 N   0  0  0  0  0  0  0  0  0  0  0  0
    3.1978   -2.1506    4.5577 N   0  0  0  0  0  0  0  0  0  0  0  0
    2.7757   -1.0646    0.6105 N   0  0  0  0  0  0  0  0  0  0  0  0
    3.3829   -2.7932    1.8771 N   0  0  0  0  0  0  0  0  0  0  0  0
    1.3890   -3.9713    2.0029 O   0  0  0  0  0  0  0  0  0  0  0  0
    4.9439   -1.0975    1.4877 O   0  0  0  0  0  0  0  0  0  0  0  0
    3.3489   -2.0899    5.9639 O   0  0  0  0  0  0  0  0  0  0  0  0
    0.3814    0.6580    0.2556 H   0  0  0  0  0  0  0  0  0  0  0  0
   -1.1762    0.2524    0.9712 H   0  0  0  0  0  0  0  0  0  0  0  0
   -1.3779   -1.7595   -0.3511 H   0  0  0  0  0  0  0  0  0  0  0  0
   -0.5433   -0.7305   -1.5105 H   0  0  0  0  0  0  0  0  0  0  0  0
    4.8151   -5.4200    7.4963 H   0  0  0  0  0  0  0  0  0  0  0  0
    4.5459   -4.8547    9.2234 H   0  0  0  0  0  0  0  0  0  0  0  0
    6.4437   -3.1791    8.9434 H   0  0  0  0  0  0  0  0  0  0  0  0
    6.6853   -3.7689    7.2204 H   0  0  0  0  0  0  0  0  0  0  0  0
    0.9891   -0.3890    2.4535 H   0  0  0  0  0  0  0  0  0  0  0  0
   -0.1809   -1.6876    2.1609 H   0  0  0  0  0  0  0  0  0  0  0  0
    0.4415   -3.2095   -0.3975 H   0  0  0  0  0  0  0  0  0  0  0  0
    1.4399   -2.0687   -1.3021 H   0  0  0  0  0  0  0  0  0  0  0  0
    4.0769   -2.5278    8.3798 H   0  0  0  0  0  0  0  0  0  0  0  0
    5.2328   -3.4756    2.5182 H   0  0  0  0  0  0  0  0  0  0  0  0
    3.8918   -4.6260    2.7065 H   0  0  0  0  0  0  0  0  0  0  0  0
    2.7873   -0.0781    0.3850 H   0  0  0  0  0  0  0  0  0  0  0  0
  1 11  1  0  0  0  0
  1 14  2  0  0  0  0
  1 20  1  0  0  0  0
  2 13  1  0  0  0  0
  2 14  1  0  0  0  0
  2 15  2  0  0  0  0
  3 12  1  0  0  0  0
  3 17  1  0  0  0  0
  3 18  2  0  0  0  0
  4 16  1  0  0  0  0
  4 17  1  0  0  0  0
  4 19  2  0  0  0  0
  5  6  1  0  0  0  0
  5  9  1  0  0  0  0
  5 21  1  0  0  0  0
  5 22  1  0  0  0  0
  6 10  1  0  0  0  0
  6 23  1  0  0  0  0
  6 24  1  0  0  0  0
  7  8  1  0  0  0  0
  7 11  1  0  0  0  0
  7 25  1  0  0  0  0
  7 26  1  0  0  0  0
  8 11  1  0  0  0  0
  8 27  1  0  0  0  0
  8 28  1  0  0  0  0
  9 12  1  0  0  0  0
  9 29  1  0  0  0  0
  9 30  1  0  0  0  0
 10 12  1  0  0  0  0
 10 31  1  0  0  0  0
 10 32  1  0  0  0  0
 11 33  1  0  0  0  0
 12 16  1  0  0  0  0
 13 17  1  0  0  0  0
 13 34  1  0  0  0  0
 13 35  1  0  0  0  0
 15 20  1  0  0  0  0
 16 36  1  0  0  0  0
M  END
$$$$
