29
0 1 BrC14H10N3O
C                     4.483595879772    -3.774324910850    -7.918181358886
C                     2.641895088787     1.520031543885    -4.992513085839
C                     3.081790372448     0.602812283036    -4.020225120272
C                     5.383192401775    -3.911495491554    -6.855734349792
C                     3.151567039143    -4.149653674339    -7.755129937916
C                     1.866142629078     1.121025539871    -6.088720320365
C                     2.759626180612    -0.760997358626    -4.104994298113
C                     4.949181939120    -4.428703962577    -5.632776769396
C                     2.689478005057    -4.671979759957    -6.533371785294
C                     1.538678150674    -0.234391113100    -6.185076494705
C                     1.988035027610    -1.123491849638    -5.194799520286
C                     3.614242941339    -4.805106225538    -5.487228080465
C                     0.849999287389    -2.178879835829    -6.708491531771
C                     1.284587548056    -5.120110475086    -6.396080388142
N                     0.815831246248    -0.953623811262    -7.148544917707
N                     0.195022106661    -4.549406622569    -6.777468188358
N                     0.260329189173    -3.265620269977    -7.321191088814
O                     1.520986338326    -2.386342395995    -5.532921416042
Br                    3.035669191804    -5.447485617793    -3.773527964679
H                     4.818325643772    -3.372036272429    -8.869959352411
H                     2.913455953130     2.567093953270    -4.888982046413
H                     3.681928410824     0.955130077150    -3.186193077868
H                     6.421527572976    -3.613795966516    -6.972477764103
H                     2.449377868911    -4.037739197870    -8.575038044772
H                     1.531778230191     1.831582488791    -6.838570640425
H                     3.089529684406    -1.484532801980    -3.366089167264
H                     5.636418323539    -4.530831962714    -4.799268585972
H                     1.121972063273    -6.099701567711    -5.949645908227
H                    -0.611460541522    -3.018811733165    -7.775238507877
