36
0 1 C13H16N4O3
C                     6.651243463629    -3.780259400430     2.543572523683
C                     4.932272695199    -4.976743091659     2.493068872008
C                     2.438181468695    -3.661833948728     0.815586687000
C                     2.189403366055    -3.452850268670     3.109742327649
C                     0.406704511117    -1.549545847174    -0.864312255621
C                     1.349700602452    -0.416737165979    -0.429380797074
C                     7.588436322499    -1.729073258808     1.322377182775
C                     7.238237629109    -1.289941239189     2.712145570173
C                     0.266641871122    -2.387699968379     0.413194202843
C                     2.411135591882    -1.142245334348     0.417736077924
C                     7.671260139079    -2.732936932196     2.468279988916
C                     1.677920872916    -2.355358054290     1.072826126859
C                     3.507980643700    -5.405886960220     2.242901869695
N                     5.391578124863    -3.714316506208     2.191912867266
N                     5.828208094086    -5.787214857576     2.999709531256
N                     1.648875404760    -2.337885749941     2.531815386127
N                     2.649467164871    -4.259345913446     2.041031913588
O                     2.780011579047    -4.100063271403    -0.269689995357
O                     2.276258592212    -3.740681940505     4.291405215153
O                     6.997362073722    -4.985693573833     3.032656612403
H                    -0.557460245592    -1.193547768438    -1.239657831069
H                     0.877933356400    -2.147975267589    -1.651054318384
H                     1.787695684835     0.127766710079    -1.270790511730
H                     0.799996983496     0.309892159563     0.182236148064
H                     6.776846479221    -1.875454629248     0.617423680755
H                     8.531365816882    -1.405346359043     0.892975223905
H                     7.936320632899    -0.660047476296     3.254550856416
H                     6.189860812326    -1.140043925401     2.947667974189
H                    -0.440842214529    -1.909253325863     1.100734223853
H                    -0.084611932833    -3.407488769538     0.236476383524
H                     3.206621503702    -1.522383292078    -0.228416035628
H                     2.873693482268    -0.516112545020     1.184152936160
H                     8.653946516212    -3.035046757694     2.812862730948
H                     3.459863147320    -6.017133957570     1.338571090235
H                     3.142365208377    -5.989097217597     3.089276594822
H                     1.107396639020    -1.689706406121     3.086802273312
