
  -OEChem-05262117483D

 16 16  0     0  0  0  0  0  0999 V2000
    0.1515    1.3107   -2.9224 C   0  0  0  0  0  0  0  0  0  0  0  0
    0.2150    0.4598   -0.9792 C   0  0  0  0  0  0  0  0  0  0  0  0
    0.1881    2.3263   -4.0179 C   0  0  0  0  0  0  0  0  0  0  0  0
    0.2830    0.1893    0.4939 C   0  0  0  0  0  0  0  0  0  0  0  0
    0.3165    1.6311   -1.5954 N   0  0  0  0  0  0  0  0  0  0  0  0
   -0.0369    0.0121   -3.1515 N   0  0  0  0  0  0  0  0  0  0  0  0
    0.0046   -0.5132   -1.8934 N   0  0  0  0  0  0  0  0  0  0  0  0
    0.6420   -1.2207    0.7270 N   0  0  0  0  0  0  0  0  0  0  0  0
    1.1495    2.8496   -4.0245 H   0  0  0  0  0  0  0  0  0  0  0  0
    0.0393    1.8421   -4.9850 H   0  0  0  0  0  0  0  0  0  0  0  0
   -0.5937    3.0782   -3.8709 H   0  0  0  0  0  0  0  0  0  0  0  0
    0.9617    0.9241    0.9474 H   0  0  0  0  0  0  0  0  0  0  0  0
   -0.7081    0.3627    0.9287 H   0  0  0  0  0  0  0  0  0  0  0  0
   -0.0972   -1.5057   -1.7210 H   0  0  0  0  0  0  0  0  0  0  0  0
    0.4472   -1.4726    1.6934 H   0  0  0  0  0  0  0  0  0  0  0  0
    1.6426   -1.3503    0.5860 H   0  0  0  0  0  0  0  0  0  0  0  0
  1  3  1  0  0  0  0
  1  5  1  0  0  0  0
  1  6  2  0  0  0  0
  2  4  1  0  0  0  0
  2  5  2  0  0  0  0
  2  7  1  0  0  0  0
  3  9  1  0  0  0  0
  3 10  1  0  0  0  0
  3 11  1  0  0  0  0
  4  8  1  0  0  0  0
  4 12  1  0  0  0  0
  4 13  1  0  0  0  0
  6  7  1  0  0  0  0
  7 14  1  0  0  0  0
  8 15  1  0  0  0  0
  8 16  1  0  0  0  0
M  END
$$$$
