36
0 1 C13H16N4O3
C                     4.232477871926    -3.051326465946     6.298222996264
C                     3.999154156886    -3.130235884614     4.217829484719
C                     2.039293577034    -3.007282850907     1.638649086915
C                     3.828109709944    -1.564389924113     1.337647787130
C                    -0.240247919465    -0.177665237029     0.603118713683
C                    -0.451770327191    -1.203857643366    -0.528975170811
C                     4.892545636876    -4.617732396479     8.222415788550
C                     6.009285740942    -3.632068609062     8.057751493651
C                     0.503931213720    -0.984073371769     1.675593466875
C                     0.765485135921    -2.167383624972    -0.448603984768
C                     4.583158651046    -3.214136343979     7.710121410567
C                     1.527874495200    -1.800281963703     0.852491891972
C                     4.180548849684    -3.575544730516     2.794083528226
N                     4.667389100028    -3.726496657442     5.263727704241
N                     3.197759171867    -2.150619873033     4.557736670923
N                     2.775654026971    -1.064562606665     0.610499000071
N                     3.382917150733    -2.793172629034     1.877123527168
O                     1.388983818681    -3.971298051553     2.002888814951
O                     4.943892013842    -1.097467030836     1.487708479089
O                     3.348939348799    -2.089898777815     5.963944572799
H                     0.381393906922     0.658024849870     0.255571827840
H                    -1.176196015950     0.252394621408     0.971187726769
H                    -1.377873594974    -1.759483485574    -0.351141957060
H                    -0.543288054374    -0.730547665824    -1.510495188454
H                     4.815148918892    -5.420001815088     7.496307935399
H                     4.545883911045    -4.854717541558     9.223385709280
H                     6.443737680268    -3.179057297811     8.943367651175
H                     6.685345918546    -3.768862786016     7.220437621189
H                     0.989116906847    -0.388964331973     2.453537699214
H                    -0.180921518412    -1.687592766506     2.160949290475
H                     0.441462674808    -3.209509858753    -0.397456324428
H                     1.439916140939    -2.068697599793    -1.302144436091
H                     4.076925050784    -2.527834221926     8.379822015830
H                     5.232795227194    -3.475578324033     2.518173165885
H                     3.891760065612    -4.625952233095     2.706493380760
H                     2.787271683998    -0.078120807037     0.385022559723
