25
0 1 C10F2H10O3
C                    -4.619395986752    -1.144270775997    -3.128258550465
C                    -3.289042600548    -0.849609252034    -2.833114903729
C                    -5.245164845037    -0.590990601736    -4.251165071898
C                    -2.541793223521    -0.000120181436    -3.662642139915
C                    -4.501267525176     0.246345586129    -5.072046346228
C                    -3.163745264172     0.535405414769    -4.799391873678
C                     2.760984409175     1.561730893298    -2.584392608118
C                     2.362688994903     3.030179798468    -2.754095003443
C                     0.506619677372     1.649435644673    -2.583761352623
C                    -0.676926096733     1.523023839924    -3.525875268505
O                     1.594359907190     0.871975747068    -3.040182284937
O                     0.937772233831     3.013761165322    -2.567305158479
O                    -1.232949213440     0.210015898417    -3.340245559907
F                    -5.059112038092     0.791857592400    -6.174999965761
F                    -2.479324367104     1.322620905923    -5.661590870692
H                    -5.180694444613    -1.803676550841    -2.473161204176
H                    -2.796093025766    -1.266078193961    -1.960324954021
H                    -6.281469462737    -0.796781364091    -4.498445528947
H                     3.604248799995     1.252326031862    -3.204202147829
H                     2.966857966596     1.317754946843    -1.532619050445
H                     2.813756744095     3.689992277749    -2.007347281120
H                     2.593850788200     3.401699883068    -3.759103747523
H                     0.224710567462     1.349186009365    -1.562017151710
H                    -0.341108201509     1.667257946829    -4.554972328551
H                    -1.414087355834     2.289967382946    -3.268077430270
