42
0 1 C19ClH18NO3
C                     0.830622712389     0.852483165840     2.277896559723
C                     1.859852363076     0.235238468692     1.559513751913
C                    -0.503195181137     0.457630488540     2.084628442677
C                     1.585617650957    -0.803134618056     0.659567332646
C                     1.811072860715    -3.081938584401     2.868644184451
C                    -0.367534173679    -4.007786407761     2.443816269345
C                    -0.781998576456    -0.568634753748     1.189861154857
C                     0.931377735794    -3.727512227886     2.001500042279
C                     0.264408531622    -1.220635820675     0.519716591081
C                     1.410622107663    -2.676510850891     4.142270466893
C                     0.103071173847    -2.951230458672     4.598044935160
C                    -0.765128825030    -3.619782945184     3.719484434972
C                     0.165556254838    -3.565545159814    -0.371268042786
C                    -2.098743715595    -1.183321694014     0.764914301881
C                     1.350618317446    -1.331057631111     7.036706917929
C                    -1.700763722691    -1.953426081309    -0.517220721475
C                     1.841607332997    -0.884104885619     5.659117776873
C                     0.545601860561    -2.625143592592     6.922903945581
C                     1.307753222389    -3.995851043320     0.555069724586
N                    -0.259144816491    -2.247451333177    -0.313486659267
O                    -0.430814338137    -4.390744033340    -1.059323625277
O                     2.344062994275    -1.998078811069     4.895659310292
O                    -0.381635211730    -2.570578463492     5.821669442885
Cl                   -2.407932820899    -3.946515428628     4.237651298841
H                     1.061869846094     1.660144064125     2.967297384769
H                     2.886200321054     0.565746319320     1.694223700921
H                    -1.307009590822     0.953752009733     2.623455824213
H                     2.386385381060    -1.264765247092     0.090915280096
H                     2.811384738999    -2.807171398297     2.549836463118
H                    -1.080888411544    -4.502692022601     1.791902177983
H                    -2.466138615124    -1.869845017433     1.537702480192
H                    -2.877622559556    -0.440542213385     0.574044802253
H                     2.195804050174    -1.504289093379     7.712541374994
H                     0.738121604612    -0.531658882451     7.468904049035
H                    -2.238300282257    -2.887266867138    -0.673829870290
H                    -1.820375653200    -1.324507798395    -1.405713655653
H                     1.041900523825    -0.396688514754     5.093204750857
H                     2.677053331617    -0.184747691899     5.743231822744
H                     1.207206694805    -3.487191446011     6.794008585180
H                    -0.068323016897    -2.791544033251     7.810929288192
H                     2.245366486094    -3.492497373608     0.310005747451
H                     1.447883263686    -5.062228584940     0.363446158016
