20
0 1 C7H9IN2O
C                     3.335075620269    -0.703706125499     5.530256490193
C                     3.056852610640     0.682812034303     5.593455595286
C                     2.601685288554     1.056553705377     4.328459198297
C                     0.826306076295    -0.240125806532     1.903778691279
C                     2.205480129556     2.381480321075     3.755832553927
C                     0.424201575668    -0.781007533376     0.547832024997
C                     2.332393128624    -0.278505320379     2.197702425791
N                     3.110298228309    -1.167403874181     4.301417845949
N                     2.668789472749    -0.090178099199     3.587621417023
O                     0.026386045749     0.203430721955     2.704971842817
I                     2.662022989591     1.822939283948     7.414299067599
H                     3.689859538938    -1.363389517291     6.310927170524
H                     2.710799576187     2.557640033065     2.799423656546
H                     1.125084551331     2.433428187318     3.590870829685
H                     2.494838604646     3.182512015355     4.437848277071
H                     0.465852267236    -1.876603303635     0.576530008938
H                    -0.593979352287    -0.471472806560     0.308291176246
H                     1.114627962023    -0.452853388897    -0.236701548428
H                     2.812487946481     0.487558550198     1.574979903122
H                     2.747139873902    -1.243515802815     1.897033877928
