22
0 1 BrC9ClH9NO
C                     1.703005745989    -1.128331714990     2.458796641166
C                     1.220367781835    -0.936055429499     3.749381836103
C                     3.711768629066    -2.196327443478     3.369763070010
C                     2.941904747522    -1.755281045922     2.265232729935
C                     3.196767938283    -1.987790680033     4.661042233232
C                     1.956466670060    -1.360615274013     4.853601602072
C                     2.936412411960    -1.655740759388    -0.257447004328
C                     5.044733319592    -2.868582725810     3.129293790425
C                     3.806184019527    -2.051766447935    -1.440943697246
N                     3.475332166670    -1.974244621874     0.976067862507
O                     1.854562289629    -1.101963989356    -0.416259811093
Cl                    4.115352460461    -2.518560587105     6.058593658500
Br                    1.227261129937    -1.061930309882     6.594749303675
H                     1.131221980371    -0.799316609773     1.603026480499
H                     0.261700096822    -0.451135028783     3.900067433430
H                     5.734178045178    -2.202150229040     2.595641222249
H                     5.530674926489    -3.151914253478     4.060081858762
H                     4.925481219002    -3.783888307237     2.535794121404
H                     3.230896968480    -2.722372358986    -2.084602052610
H                     4.744485954454    -2.541786873395    -1.165656160607
H                     4.031926974685    -1.153221205254    -2.021195891058
H                     4.375013134772    -2.430215727100     0.947707393084
