
  -OEChem-05262117483D

 20 21  0     1  0  0  0  0  0999 V2000
   -2.6783   -2.7840    1.0493 C   0  0  0  0  0  0  0  0  0  0  0  0
   -3.2993   -4.0647    1.1842 C   0  0  0  0  0  0  0  0  0  0  0  0
   -1.6504   -2.9354    0.1505 C   0  0  0  0  0  0  0  0  0  0  0  0
   -2.5934   -4.8915    0.3543 C   0  0  0  0  0  0  0  0  0  0  0  0
    1.2997   -2.9500   -1.3067 C   0  0  0  0  0  0  0  0  0  0  0  0
   -0.6331   -1.8982   -1.9654 C   0  0  0  0  0  0  0  0  0  0  0  0
   -0.6491   -1.9761   -0.4116 C   0  0  2  0  0  0  0  0  0  0  0  0
    0.7378   -2.3564   -0.1813 N   0  0  0  0  0  0  0  0  0  0  0  0
   -2.7523   -6.2884    0.0779 N   0  3  0  0  0  0  0  0  0  0  0  0
   -3.6797   -6.8536    0.6767 O   0  5  0  0  0  0  0  0  0  0  0  0
    2.3349   -3.5650   -1.3739 O   0  0  0  0  0  0  0  0  0  0  0  0
   -1.9723   -6.8150   -0.7192 O   0  0  0  0  0  0  0  0  0  0  0  0
   -1.5911   -4.2321   -0.2823 O   0  0  0  0  0  0  0  0  0  0  0  0
    0.4824   -2.6982   -2.3795 O   0  0  0  0  0  0  0  0  0  0  0  0
   -2.9547   -1.8672    1.5535 H   0  0  0  0  0  0  0  0  0  0  0  0
   -4.1402   -4.3498    1.7999 H   0  0  0  0  0  0  0  0  0  0  0  0
   -1.5381   -2.3008   -2.4215 H   0  0  0  0  0  0  0  0  0  0  0  0
   -0.4735   -0.8684   -2.2974 H   0  0  0  0  0  0  0  0  0  0  0  0
   -0.8703   -0.9945    0.0174 H   0  0  0  0  0  0  0  0  0  0  0  0
    1.0395   -2.7189    0.7148 H   0  0  0  0  0  0  0  0  0  0  0  0
  1  2  1  0  0  0  0
  1  3  2  0  0  0  0
  1 15  1  0  0  0  0
  2  4  2  0  0  0  0
  2 16  1  0  0  0  0
  3  7  1  0  0  0  0
  3 13  1  0  0  0  0
  4  9  1  0  0  0  0
  4 13  1  0  0  0  0
  5  8  1  0  0  0  0
  5 11  2  0  0  0  0
  5 14  1  0  0  0  0
  6  7  1  0  0  0  0
  6 14  1  0  0  0  0
  6 17  1  0  0  0  0
  6 18  1  0  0  0  0
  7  8  1  0  0  0  0
  7 19  1  0  0  0  0
  8 20  1  0  0  0  0
  9 10  1  0  0  0  0
  9 12  2  0  0  0  0
M  CHG  2   9   1  10  -1
M  END
$$$$
