
  -OEChem-05262117483D

 42 45  0     0  0  0  0  0  0999 V2000
    0.8306    0.8525    2.2779 C   0  0  0  0  0  0  0  0  0  0  0  0
    1.8599    0.2352    1.5595 C   0  0  0  0  0  0  0  0  0  0  0  0
   -0.5032    0.4576    2.0846 C   0  0  0  0  0  0  0  0  0  0  0  0
    1.5856   -0.8031    0.6596 C   0  0  0  0  0  0  0  0  0  0  0  0
    1.8111   -3.0819    2.8686 C   0  0  0  0  0  0  0  0  0  0  0  0
   -0.3675   -4.0078    2.4438 C   0  0  0  0  0  0  0  0  0  0  0  0
   -0.7820   -0.5686    1.1899 C   0  0  0  0  0  0  0  0  0  0  0  0
    0.9314   -3.7275    2.0015 C   0  0  0  0  0  0  0  0  0  0  0  0
    0.2644   -1.2206    0.5197 C   0  0  0  0  0  0  0  0  0  0  0  0
    1.4106   -2.6765    4.1423 C   0  0  0  0  0  0  0  0  0  0  0  0
    0.1031   -2.9512    4.5980 C   0  0  0  0  0  0  0  0  0  0  0  0
   -0.7651   -3.6198    3.7195 C   0  0  0  0  0  0  0  0  0  0  0  0
    0.1656   -3.5655   -0.3713 C   0  0  0  0  0  0  0  0  0  0  0  0
   -2.0987   -1.1833    0.7649 C   0  0  0  0  0  0  0  0  0  0  0  0
    1.3506   -1.3311    7.0367 C   0  0  0  0  0  0  0  0  0  0  0  0
   -1.7008   -1.9534   -0.5172 C   0  0  0  0  0  0  0  0  0  0  0  0
    1.8416   -0.8841    5.6591 C   0  0  0  0  0  0  0  0  0  0  0  0
    0.5456   -2.6251    6.9229 C   0  0  0  0  0  0  0  0  0  0  0  0
    1.3078   -3.9959    0.5551 C   0  0  0  0  0  0  0  0  0  0  0  0
   -0.2591   -2.2475   -0.3135 N   0  0  0  0  0  0  0  0  0  0  0  0
   -0.4308   -4.3907   -1.0593 O   0  0  0  0  0  0  0  0  0  0  0  0
    2.3441   -1.9981    4.8957 O   0  0  0  0  0  0  0  0  0  0  0  0
   -0.3816   -2.5706    5.8217 O   0  0  0  0  0  0  0  0  0  0  0  0
   -2.4079   -3.9465    4.2377 Cl  0  0  0  0  0  0  0  0  0  0  0  0
    1.0619    1.6601    2.9673 H   0  0  0  0  0  0  0  0  0  0  0  0
    2.8862    0.5657    1.6942 H   0  0  0  0  0  0  0  0  0  0  0  0
   -1.3070    0.9538    2.6235 H   0  0  0  0  0  0  0  0  0  0  0  0
    2.3864   -1.2648    0.0909 H   0  0  0  0  0  0  0  0  0  0  0  0
    2.8114   -2.8072    2.5498 H   0  0  0  0  0  0  0  0  0  0  0  0
   -1.0809   -4.5027    1.7919 H   0  0  0  0  0  0  0  0  0  0  0  0
   -2.4661   -1.8698    1.5377 H   0  0  0  0  0  0  0  0  0  0  0  0
   -2.8776   -0.4405    0.5740 H   0  0  0  0  0  0  0  0  0  0  0  0
    2.1958   -1.5043    7.7125 H   0  0  0  0  0  0  0  0  0  0  0  0
    0.7381   -0.5317    7.4689 H   0  0  0  0  0  0  0  0  0  0  0  0
   -2.2383   -2.8873   -0.6738 H   0  0  0  0  0  0  0  0  0  0  0  0
   -1.8204   -1.3245   -1.4057 H   0  0  0  0  0  0  0  0  0  0  0  0
    1.0419   -0.3967    5.0932 H   0  0  0  0  0  0  0  0  0  0  0  0
    2.6771   -0.1847    5.7432 H   0  0  0  0  0  0  0  0  0  0  0  0
    1.2072   -3.4872    6.7940 H   0  0  0  0  0  0  0  0  0  0  0  0
   -0.0683   -2.7915    7.8109 H   0  0  0  0  0  0  0  0  0  0  0  0
    2.2454   -3.4925    0.3100 H   0  0  0  0  0  0  0  0  0  0  0  0
    1.4479   -5.0622    0.3634 H   0  0  0  0  0  0  0  0  0  0  0  0
  1  2  1  0  0  0  0
  1  3  2  0  0  0  0
  1 25  1  0  0  0  0
  2  4  2  0  0  0  0
  2 26  1  0  0  0  0
  3  7  1  0  0  0  0
  3 27  1  0  0  0  0
  4  9  1  0  0  0  0
  4 28  1  0  0  0  0
  5  8  1  0  0  0  0
  5 10  2  0  0  0  0
  5 29  1  0  0  0  0
  6  8  2  0  0  0  0
  6 12  1  0  0  0  0
  6 30  1  0  0  0  0
  7  9  2  0  0  0  0
  7 14  1  0  0  0  0
  8 19  1  0  0  0  0
  9 20  1  0  0  0  0
 10 11  1  0  0  0  0
 10 22  1  0  0  0  0
 11 12  2  0  0  0  0
 11 23  1  0  0  0  0
 12 24  1  0  0  0  0
 13 19  1  0  0  0  0
 13 20  1  0  0  0  0
 13 21  2  0  0  0  0
 14 16  1  0  0  0  0
 14 31  1  0  0  0  0
 14 32  1  0  0  0  0
 15 17  1  0  0  0  0
 15 18  1  0  0  0  0
 15 33  1  0  0  0  0
 15 34  1  0  0  0  0
 16 20  1  0  0  0  0
 16 35  1  0  0  0  0
 16 36  1  0  0  0  0
 17 22  1  0  0  0  0
 17 37  1  0  0  0  0
 17 38  1  0  0  0  0
 18 23  1  0  0  0  0
 18 39  1  0  0  0  0
 18 40  1  0  0  0  0
 19 41  1  0  0  0  0
 19 42  1  0  0  0  0
M  END
$$$$
