
  -OEChem-05262117483D

 21 22  0     0  0  0  0  0  0999 V2000
    1.3762   -1.3902   -0.0815 C   0  0  0  0  0  0  0  0  0  0  0  0
    0.5842   -0.4445    0.5685 C   0  0  0  0  0  0  0  0  0  0  0  0
    1.9633   -0.6972    2.5584 C   0  0  0  0  0  0  0  0  0  0  0  0
    2.4542   -2.0253    0.5570 C   0  0  0  0  0  0  0  0  0  0  0  0
    2.7174   -1.6530    1.8834 C   0  0  0  0  0  0  0  0  0  0  0  0
    0.8929   -0.1059    1.8878 C   0  0  0  0  0  0  0  0  0  0  0  0
    3.2395   -3.0997   -0.1367 C   0  0  0  0  0  0  0  0  0  0  0  0
    3.2459   -4.2052   -2.4671 C   0  0  0  0  0  0  0  0  0  0  0  0
    4.6286   -3.7010   -2.2158 C   0  0  0  0  0  0  0  0  0  0  0  0
    3.4492   -2.9519   -1.6072 C   0  0  0  0  0  0  0  0  0  0  0  0
    3.6659   -4.0702    0.4788 O   0  0  0  0  0  0  0  0  0  0  0  0
    3.7568   -2.1946    2.5438 F   0  0  0  0  0  0  0  0  0  0  0  0
   -0.1668    1.1996    2.7982 Br  0  0  0  0  0  0  0  0  0  0  0  0
    1.1321   -1.6642   -1.1034 H   0  0  0  0  0  0  0  0  0  0  0  0
   -0.2547    0.0197    0.0615 H   0  0  0  0  0  0  0  0  0  0  0  0
    2.2202   -0.4340    3.5786 H   0  0  0  0  0  0  0  0  0  0  0  0
    2.7994   -4.0581   -3.4458 H   0  0  0  0  0  0  0  0  0  0  0  0
    2.9302   -5.0944   -1.9309 H   0  0  0  0  0  0  0  0  0  0  0  0
    5.2424   -4.2523   -1.5112 H   0  0  0  0  0  0  0  0  0  0  0  0
    5.1559   -3.1993   -3.0211 H   0  0  0  0  0  0  0  0  0  0  0  0
    3.1892   -1.9989   -2.0542 H   0  0  0  0  0  0  0  0  0  0  0  0
  1  2  1  0  0  0  0
  1  4  2  0  0  0  0
  1 14  1  0  0  0  0
  2  6  2  0  0  0  0
  2 15  1  0  0  0  0
  3  5  2  0  0  0  0
  3  6  1  0  0  0  0
  3 16  1  0  0  0  0
  4  5  1  0  0  0  0
  4  7  1  0  0  0  0
  5 12  1  0  0  0  0
  6 13  1  0  0  0  0
  7 10  1  0  0  0  0
  7 11  2  0  0  0  0
  8  9  1  0  0  0  0
  8 10  1  0  0  0  0
  8 17  1  0  0  0  0
  8 18  1  0  0  0  0
  9 10  1  0  0  0  0
  9 19  1  0  0  0  0
  9 20  1  0  0  0  0
 10 21  1  0  0  0  0
M  END
$$$$
