42
0 1 C19ClH18NO3
C                     1.254351055461    -1.583054496468    -2.875662730589
C                     0.497899842376    -1.238656252071    -1.750451208478
C                     1.368276569375    -2.928122041314    -3.258396572418
C                    -0.164375750441    -2.210095152803    -0.986418701042
C                    -4.287308674445    -5.890601876133     1.659336290988
C                    -2.432406679506    -6.161533527605     3.168139588772
C                     0.716233655113    -3.901377792623    -2.510862529802
C                    -2.916749001745    -6.057485524378     1.861131892405
C                    -0.047335473006    -3.543850656337    -1.388793621808
C                    -5.174930297178    -5.814361547940     2.734576259694
C                    -4.690751152023    -5.880542598366     4.059699369474
C                    -3.311840523178    -6.070128933218     4.244302347282
C                    -1.409349732811    -4.731830411581     0.317499695812
C                     0.720452636844    -5.404680155716    -2.671750018155
C                    -7.818643152018    -5.449540836244     4.491122938751
C                    -0.392537855093    -5.865801647482    -1.704728926907
C                    -7.456392267735    -6.307926957993     3.279284990834
C                    -6.560487042532    -4.831684738331     5.101707019934
C                    -1.971090842117    -6.113337437826     0.688441310343
N                    -0.622049478051    -4.705799835331    -0.811317100053
O                    -1.638114819019    -3.730555129142     0.989836069259
O                    -6.506847052782    -5.643393085554     2.424453463536
O                    -5.490161770128    -5.793945827651     5.170624927267
Cl                   -2.682655619619    -6.171907470017     5.876626655256
H                     1.755162854192    -0.810012328971    -3.452070711262
H                     0.415854503683    -0.195275783633    -1.456991715841
H                     1.960303511760    -3.206012658862    -4.127495040113
H                    -0.748191174876    -1.947463455377    -0.115168080214
H                    -4.703957880588    -5.821392942501     0.658156011734
H                    -1.371570469965    -6.289212547729     3.359488263656
H                     0.523331580528    -5.728992436604    -3.697049707829
H                     1.691865629061    -5.818187562675    -2.376258903079
H                    -8.503590876750    -4.643545613190     4.204556810091
H                    -8.335179668527    -6.080195936973     5.223655273120
H                    -1.314821325973    -6.097569666191    -2.251224504275
H                    -0.104993187810    -6.748345777836    -1.131252027053
H                    -7.044820098878    -7.271929389594     3.594916426503
H                    -8.331492245304    -6.496500119575     2.652689372533
H                    -6.228188128133    -3.965447193140     4.521506156311
H                    -6.732310337784    -4.511033961567     6.131781020487
H                    -1.129928671269    -6.779925644990     0.912126274162
H                    -2.475604589986    -6.542671550887    -0.184073345504
