
  -OEChem-05262117483D

 42 45  0     0  0  0  0  0  0999 V2000
   -2.7658   -0.2385    2.5135 C   0  0  0  0  0  0  0  0  0  0  0  0
   -1.6902   -0.7750    1.7996 C   0  0  0  0  0  0  0  0  0  0  0  0
   -4.0495   -0.7847    2.3610 C   0  0  0  0  0  0  0  0  0  0  0  0
   -1.8649   -1.8649    0.9370 C   0  0  0  0  0  0  0  0  0  0  0  0
   -2.2713   -5.2769    2.4134 C   0  0  0  0  0  0  0  0  0  0  0  0
   -0.0640   -4.3864    2.0692 C   0  0  0  0  0  0  0  0  0  0  0  0
   -4.2290   -1.8713    1.5139 C   0  0  0  0  0  0  0  0  0  0  0  0
   -1.2704   -4.8505    1.5382 C   0  0  0  0  0  0  0  0  0  0  0  0
   -3.1367   -2.4271    0.8263 C   0  0  0  0  0  0  0  0  0  0  0  0
   -2.1014   -5.2075    3.7965 C   0  0  0  0  0  0  0  0  0  0  0  0
   -0.9074   -4.6852    4.3426 C   0  0  0  0  0  0  0  0  0  0  0  0
    0.1050   -4.3031    3.4493 C   0  0  0  0  0  0  0  0  0  0  0  0
   -2.9304   -4.6514   -0.3935 C   0  0  0  0  0  0  0  0  0  0  0  0
   -5.4837   -2.6469    1.1782 C   0  0  0  0  0  0  0  0  0  0  0  0
   -2.6502   -5.2786    6.9422 C   0  0  0  0  0  0  0  0  0  0  0  0
   -5.0600   -3.4501   -0.0691 C   0  0  0  0  0  0  0  0  0  0  0  0
   -2.8373   -6.2851    5.8075 C   0  0  0  0  0  0  0  0  0  0  0  0
   -1.7988   -4.0982    6.4733 C   0  0  0  0  0  0  0  0  0  0  0  0
   -1.4845   -4.8878    0.0373 C   0  0  0  0  0  0  0  0  0  0  0  0
   -3.5829   -3.5176    0.0355 N   0  0  0  0  0  0  0  0  0  0  0  0
   -3.5237   -5.4934   -1.0700 O   0  0  0  0  0  0  0  0  0  0  0  0
   -3.1624   -5.6282    4.5670 O   0  0  0  0  0  0  0  0  0  0  0  0
   -0.6772   -4.5461    5.6869 O   0  0  0  0  0  0  0  0  0  0  0  0
    1.6007   -3.6527    4.0894 Cl  0  0  0  0  0  0  0  0  0  0  0  0
   -2.6101    0.6111    3.1726 H   0  0  0  0  0  0  0  0  0  0  0  0
   -0.7002   -0.3397    1.9044 H   0  0  0  0  0  0  0  0  0  0  0  0
   -4.8957   -0.3602    2.8966 H   0  0  0  0  0  0  0  0  0  0  0  0
   -1.0221   -2.2388    0.3705 H   0  0  0  0  0  0  0  0  0  0  0  0
   -3.2127   -5.6724    2.0433 H   0  0  0  0  0  0  0  0  0  0  0  0
    0.7381   -4.0524    1.4181 H   0  0  0  0  0  0  0  0  0  0  0  0
   -5.7487   -3.3188    2.0041 H   0  0  0  0  0  0  0  0  0  0  0  0
   -6.3454   -2.0043    0.9802 H   0  0  0  0  0  0  0  0  0  0  0  0
   -3.6186   -4.8993    7.2874 H   0  0  0  0  0  0  0  0  0  0  0  0
   -2.1732   -5.7892    7.7865 H   0  0  0  0  0  0  0  0  0  0  0  0
   -5.4641   -4.4602   -0.1168 H   0  0  0  0  0  0  0  0  0  0  0  0
   -5.3326   -2.9273   -0.9927 H   0  0  0  0  0  0  0  0  0  0  0  0
   -1.9351   -6.8892    5.6698 H   0  0  0  0  0  0  0  0  0  0  0  0
   -3.6738   -6.9583    6.0089 H   0  0  0  0  0  0  0  0  0  0  0  0
   -2.3939   -3.3955    5.8817 H   0  0  0  0  0  0  0  0  0  0  0  0
   -1.3658   -3.5574    7.3180 H   0  0  0  0  0  0  0  0  0  0  0  0
   -0.8190   -4.1740   -0.4575 H   0  0  0  0  0  0  0  0  0  0  0  0
   -1.2356   -5.8743   -0.3626 H   0  0  0  0  0  0  0  0  0  0  0  0
  1  2  1  0  0  0  0
  1  3  2  0  0  0  0
  1 25  1  0  0  0  0
  2  4  2  0  0  0  0
  2 26  1  0  0  0  0
  3  7  1  0  0  0  0
  3 27  1  0  0  0  0
  4  9  1  0  0  0  0
  4 28  1  0  0  0  0
  5  8  1  0  0  0  0
  5 10  2  0  0  0  0
  5 29  1  0  0  0  0
  6  8  2  0  0  0  0
  6 12  1  0  0  0  0
  6 30  1  0  0  0  0
  7  9  2  0  0  0  0
  7 14  1  0  0  0  0
  8 19  1  0  0  0  0
  9 20  1  0  0  0  0
 10 11  1  0  0  0  0
 10 22  1  0  0  0  0
 11 12  2  0  0  0  0
 11 23  1  0  0  0  0
 12 24  1  0  0  0  0
 13 19  1  0  0  0  0
 13 20  1  0  0  0  0
 13 21  2  0  0  0  0
 14 16  1  0  0  0  0
 14 31  1  0  0  0  0
 14 32  1  0  0  0  0
 15 17  1  0  0  0  0
 15 18  1  0  0  0  0
 15 33  1  0  0  0  0
 15 34  1  0  0  0  0
 16 20  1  0  0  0  0
 16 35  1  0  0  0  0
 16 36  1  0  0  0  0
 17 22  1  0  0  0  0
 17 37  1  0  0  0  0
 17 38  1  0  0  0  0
 18 23  1  0  0  0  0
 18 39  1  0  0  0  0
 18 40  1  0  0  0  0
 19 41  1  0  0  0  0
 19 42  1  0  0  0  0
M  END
$$$$
