54
0 1 C21ClH25O6S
C                    -2.717384101760    -3.372839716896    -7.099001532166
C                    -3.139045912573    -2.112489532859    -6.693904730208
C                    -1.369743602065    -3.746606455094    -6.975499090804
C                    -0.852895087964    -1.526091379671    -6.070173579900
C                    -2.211756266526    -1.186755540810    -6.206783312136
C                    -0.446024166489    -2.822808616623    -6.458288873497
C                    -0.478528252225    -6.337907148899    -9.478513382811
C                    -2.716770245612    -6.736326046673    -8.273905419079
C                    -0.983024166822    -5.150993056013    -7.338295667919
C                     0.002500986750    -7.736986917328    -9.132477927625
C                    -2.364358951177    -8.208084992338    -8.347161240721
C                    -0.873247899666    -8.483831786003    -8.115303558226
C                     3.577723622973     2.589476466498    -5.430217618182
C                     3.730660191985     1.453811112091    -4.376057730586
C                     2.359606876324     2.196595932119    -6.308841831306
C                     2.767494664727     0.339797752357    -4.828643853241
C                    -1.604718133039    -5.727395300405    -8.630720192879
C                     1.622081405716     1.108727588498    -5.504927602924
C                    -3.519140557148     2.670063239337    -7.277840023865
C                     0.711725911962     0.259921093000    -6.365322396697
C                    -2.981995705137     1.248173684125    -7.426386644573
O                    -0.017528889268    -5.700569619521   -10.407848468113
O                    -3.829661860788    -6.335092629944    -7.982032246258
O                    -0.218445347418    -5.814770967056    -6.661278039404
O                    -4.272422035783     0.226693505598    -5.335428416939
O                    -1.949511106594     1.216044335230    -4.959798376989
O                     0.052749072290    -0.695234501074    -5.500561441136
S                    -2.889393566847     0.451318071180    -5.787409785294
Cl                    1.248333702022    -3.201065661583    -6.308398661267
H                    -3.440712546864    -4.091343939126    -7.472868358942
H                    -4.189745727351    -1.843902337518    -6.734654571660
H                     0.061692987375    -8.277876730000   -10.083705629769
H                     1.030829702652    -7.640971559570    -8.768059469986
H                    -3.006575139889    -8.742928378575    -7.642817969985
H                    -2.658244574347    -8.538911444689    -9.354882399013
H                    -0.600242159284    -8.181819662494    -7.102496991064
H                    -0.687031158912    -9.558906709629    -8.193368335980
H                     3.409895726789     3.552932771342    -4.939637476694
H                     4.479264918851     2.700629822093    -6.039969610535
H                     4.762214719247     1.100029746107    -4.288043495211
H                     3.433695307794     1.817549899813    -3.386599276892
H                     1.717141947865     3.049916600271    -6.547965434410
H                     2.704237889902     1.774387174325    -7.261876874711
H                     3.252924218588    -0.309734184290    -5.569411867791
H                     2.424904608275    -0.297556297934    -4.009913361474
H                    -2.053422994859    -4.919477428375    -9.208710196449
H                     1.000028398053     1.580408938505    -4.734738579027
H                    -4.519595112192     2.666217290497    -6.838624754087
H                    -2.861468589100     3.272100965690    -6.646374218358
H                    -3.576700448253     3.138146231938    -8.264990307109
H                     1.279236873234    -0.283771025217    -7.132031720594
H                    -0.043999354658     0.883324841369    -6.855524509861
H                    -1.973404023875     1.228561022004    -7.846386230390
H                    -3.634715188338     0.617512534901    -8.035301288075
