
  -OEChem-05262117483D

 54 56  0     0  0  0  0  0  0999 V2000
   -3.0199   -3.8523   -5.1223 C   0  0  0  0  0  0  0  0  0  0  0  0
   -3.3628   -2.5196   -5.3139 C   0  0  0  0  0  0  0  0  0  0  0  0
   -1.7447   -4.1995   -4.6485 C   0  0  0  0  0  0  0  0  0  0  0  0
   -1.1675   -1.8196   -4.5076 C   0  0  0  0  0  0  0  0  0  0  0  0
   -2.4541   -1.5093   -4.9860 C   0  0  0  0  0  0  0  0  0  0  0  0
   -0.8244   -3.1813   -4.3477 C   0  0  0  0  0  0  0  0  0  0  0  0
   -3.1207   -7.4146   -5.1053 C   0  0  0  0  0  0  0  0  0  0  0  0
   -1.8300   -7.4589   -2.8777 C   0  0  0  0  0  0  0  0  0  0  0  0
   -1.3922   -5.6553   -4.5493 C   0  0  0  0  0  0  0  0  0  0  0  0
   -2.6419   -8.8407   -5.2867 C   0  0  0  0  0  0  0  0  0  0  0  0
   -1.0650   -8.7005   -3.3044 C   0  0  0  0  0  0  0  0  0  0  0  0
   -1.2087   -9.0658   -4.7890 C   0  0  0  0  0  0  0  0  0  0  0  0
    3.1750    1.4699   -2.7599 C   0  0  0  0  0  0  0  0  0  0  0  0
    2.3988    2.1575   -1.6019 C   0  0  0  0  0  0  0  0  0  0  0  0
    2.2960    0.2801   -3.1822 C   0  0  0  0  0  0  0  0  0  0  0  0
    0.9533    1.5864   -1.6565 C   0  0  0  0  0  0  0  0  0  0  0  0
   -2.4762   -6.5926   -3.9696 C   0  0  0  0  0  0  0  0  0  0  0  0
    0.8684    0.8139   -2.9892 C   0  0  0  0  0  0  0  0  0  0  0  0
   -4.6320    1.8541   -3.6906 C   0  0  0  0  0  0  0  0  0  0  0  0
   -0.2094   -0.2480   -2.9791 C   0  0  0  0  0  0  0  0  0  0  0  0
   -4.0476    0.4431   -3.6975 C   0  0  0  0  0  0  0  0  0  0  0  0
   -3.9993   -6.9195   -5.7893 O   0  0  0  0  0  0  0  0  0  0  0  0
   -1.9611   -7.1430   -1.7092 O   0  0  0  0  0  0  0  0  0  0  0  0
   -0.3110   -6.0920   -4.9010 O   0  0  0  0  0  0  0  0  0  0  0  0
   -1.9550    1.1555   -5.2023 O   0  0  0  0  0  0  0  0  0  0  0  0
   -4.0062    0.1508   -6.3420 O   0  0  0  0  0  0  0  0  0  0  0  0
   -0.2247   -0.8730   -4.2842 O   0  0  0  0  0  0  0  0  0  0  0  0
   -3.0623    0.1928   -5.2129 S   0  0  0  0  0  0  0  0  0  0  0  0
    0.7638   -3.5311   -3.7219 Cl  0  0  0  0  0  0  0  0  0  0  0  0
   -3.7263   -4.6351   -5.3820 H   0  0  0  0  0  0  0  0  0  0  0  0
   -4.3271   -2.2539   -5.7350 H   0  0  0  0  0  0  0  0  0  0  0  0
   -3.3438   -9.4688   -4.7174 H   0  0  0  0  0  0  0  0  0  0  0  0
   -2.7692   -9.1062   -6.3393 H   0  0  0  0  0  0  0  0  0  0  0  0
   -0.0150   -8.5371   -3.0396 H   0  0  0  0  0  0  0  0  0  0  0  0
   -1.4232   -9.5096   -2.6576 H   0  0  0  0  0  0  0  0  0  0  0  0
   -0.5177   -8.4659   -5.3841 H   0  0  0  0  0  0  0  0  0  0  0  0
   -0.9347  -10.1147   -4.9348 H   0  0  0  0  0  0  0  0  0  0  0  0
    3.2817    2.1615   -3.6030 H   0  0  0  0  0  0  0  0  0  0  0  0
    4.1842    1.1649   -2.4670 H   0  0  0  0  0  0  0  0  0  0  0  0
    2.8605    1.9447   -0.6330 H   0  0  0  0  0  0  0  0  0  0  0  0
    2.4016    3.2453   -1.7187 H   0  0  0  0  0  0  0  0  0  0  0  0
    2.4863   -0.0626   -4.2022 H   0  0  0  0  0  0  0  0  0  0  0  0
    2.4590   -0.5743   -2.5112 H   0  0  0  0  0  0  0  0  0  0  0  0
    0.7912    0.8944   -0.8201 H   0  0  0  0  0  0  0  0  0  0  0  0
    0.1879    2.3648   -1.5804 H   0  0  0  0  0  0  0  0  0  0  0  0
   -3.2572   -5.9955   -3.4987 H   0  0  0  0  0  0  0  0  0  0  0  0
    0.6337    1.5104   -3.8029 H   0  0  0  0  0  0  0  0  0  0  0  0
   -3.8388    2.6054   -3.7059 H   0  0  0  0  0  0  0  0  0  0  0  0
   -5.2816    2.0125   -4.5547 H   0  0  0  0  0  0  0  0  0  0  0  0
   -5.2251    1.9937   -2.7819 H   0  0  0  0  0  0  0  0  0  0  0  0
   -1.1889    0.2015   -2.7830 H   0  0  0  0  0  0  0  0  0  0  0  0
   -0.0087   -1.0137   -2.2182 H   0  0  0  0  0  0  0  0  0  0  0  0
   -4.8215   -0.3286   -3.7065 H   0  0  0  0  0  0  0  0  0  0  0  0
   -3.3788    0.2681   -2.8513 H   0  0  0  0  0  0  0  0  0  0  0  0
  1  2  1  0  0  0  0
  1  3  2  0  0  0  0
  1 30  1  0  0  0  0
  2  5  2  0  0  0  0
  2 31  1  0  0  0  0
  3  6  1  0  0  0  0
  3  9  1  0  0  0  0
  4  5  1  0  0  0  0
  4  6  2  0  0  0  0
  4 27  1  0  0  0  0
  5 28  1  0  0  0  0
  6 29  1  0  0  0  0
  7 10  1  0  0  0  0
  7 17  1  0  0  0  0
  7 22  2  0  0  0  0
  8 11  1  0  0  0  0
  8 17  1  0  0  0  0
  8 23  2  0  0  0  0
  9 17  1  0  0  0  0
  9 24  2  0  0  0  0
 10 12  1  0  0  0  0
 10 32  1  0  0  0  0
 10 33  1  0  0  0  0
 11 12  1  0  0  0  0
 11 34  1  0  0  0  0
 11 35  1  0  0  0  0
 12 36  1  0  0  0  0
 12 37  1  0  0  0  0
 13 14  1  0  0  0  0
 13 15  1  0  0  0  0
 13 38  1  0  0  0  0
 13 39  1  0  0  0  0
 14 16  1  0  0  0  0
 14 40  1  0  0  0  0
 14 41  1  0  0  0  0
 15 18  1  0  0  0  0
 15 42  1  0  0  0  0
 15 43  1  0  0  0  0
 16 18  1  0  0  0  0
 16 44  1  0  0  0  0
 16 45  1  0  0  0  0
 17 46  1  0  0  0  0
 18 20  1  0  0  0  0
 18 47  1  0  0  0  0
 19 21  1  0  0  0  0
 19 48  1  0  0  0  0
 19 49  1  0  0  0  0
 19 50  1  0  0  0  0
 20 27  1  0  0  0  0
 20 51  1  0  0  0  0
 20 52  1  0  0  0  0
 21 28  1  0  0  0  0
 21 53  1  0  0  0  0
 21 54  1  0  0  0  0
 25 28  2  0  0  0  0
 26 28  2  0  0  0  0
M  END
$$$$
