30
1 1 C11H15N2O2
C                    -0.863201904247    -1.583034747575     0.474481771681
C                    -2.122655889635    -1.059475155171     0.443415148212
C                     0.019531380502    -0.495576103534     0.121442095184
C                    -0.775255218343     0.595201021379    -0.111079688835
C                     2.026024162137    -1.002827639662     2.308308368729
C                    -0.362958965725     1.946589783802    -0.585283907070
C                     1.069284412581     1.835487308596    -1.147545684417
C                     1.987764517512     1.019496690047    -0.222780748135
C                     1.021354800571    -0.611511268449     4.341748631968
C                     2.412225358262    -1.242330832163     4.530040541153
C                     1.506801399229    -0.441867595918    -0.078997595466
N                     1.066125277551    -0.290322159708     2.903219877256
N                     2.246928241504    -1.138693502202     1.013581737690
O                    -2.082937663280     0.266721914467     0.086096433662
O                     2.819640490872    -1.626550143215     3.166303449687
H                    -0.602976555518    -2.608364568599     0.704249881542
H                    -3.106075071369    -1.468589100089     0.625162675207
H                    -1.055933827192     2.305863649392    -1.352176823708
H                    -0.400311944577     2.673712212544     0.236388010930
H                     1.033589822190     1.363342277641    -2.135807149844
H                     1.492428872103     2.833593211134    -1.287620574865
H                     3.013940260058     1.025376330409    -0.602357862690
H                     2.010461219125     1.485204047396     0.770116605996
H                     0.207326275867    -1.310884882538     4.552626739981
H                     0.891404869365     0.292389480442     4.937907416472
H                     3.157847885790    -0.534491885566     4.894548435033
H                     2.417534005830    -2.148349279458     5.132493539322
H                     1.773593535512    -1.008045496296    -0.977135128273
H                     0.259937074152     0.025942002568     2.368577377272
H                     3.082646978058    -1.662951343935     0.772571803042
