74
0 1 C34H35NO3S
C                     4.354471909524    -0.582384725053    -3.264734676040
C                     4.394480405455    -1.219479801308    -2.018763739680
C                     3.311210564168     0.305351575674    -3.547246735754
C                     2.409347491503   -16.859589519768    -7.012446407698
C                     1.200209008832   -17.381416199685    -7.479549909157
C                     3.398470330426    -0.978346742998    -1.072378993284
C                     2.320195170577     0.552226550685    -2.593528969079
C                     0.923435023992    -3.230697267585     0.989409949311
C                     0.648711071665    -2.699131938372    -1.337990990302
C                    -1.505295069840    -1.099308361150     1.616913635705
C                     1.045124710609    -4.579354004488     0.675100498857
C                     0.760133503288    -4.051477125102    -1.672019229366
C                    -2.368310862462    -0.799221664798     2.670108965540
C                     2.490059938638   -15.492879441939    -6.749998176011
C                    -0.709868092486     0.732023789778     3.550403023811
C                     0.128769458559   -16.503354755941    -7.662518687194
C                     0.741458733688    -2.256828453894    -0.011722677536
C                     2.337705850857    -0.094418761320    -1.344757685130
C                    -0.249794398056    -0.484464308170     1.493609233622
C                     0.153754878067     0.436361046657     2.493257830607
C                     0.969220669242    -5.000985763326    -0.662110944620
C                    -1.967499173511     0.126692781972     3.640382147087
C                     1.356523199561   -14.692258891893    -6.961572845278
C                     0.636535820612    -0.817717112116     0.346401767527
C                     1.287664877581     0.170392982169    -0.327958973341
C                     1.525195101646     1.069282449334     2.431220798668
C                     0.988516412423     1.622966068301    -0.002223613223
C                     1.674604683381     2.100221681085     1.293624444869
C                     1.383676880356   -13.217567452505    -6.671032839188
C                     1.262416319413    -8.948299392275    -3.587971462456
C                     1.264165255387    -8.333077564975    -2.184063216568
C                     1.456561050260   -10.469780691213    -3.558909902021
C                     1.060547903212    -6.825689324095    -2.220150599327
C                     1.463156931976   -11.074889915558    -4.960877951417
N                     0.193539071653   -15.188751445687    -7.411667532832
O                     0.308923611806   -13.373229024855    -4.162489073963
O                    -2.761262597635     0.470496585734     4.709590532778
O                     1.100521288235    -6.347382506073    -0.874216759637
S                     1.584574304001   -12.913962500300    -4.842417986777
H                     5.129237591321    -0.771358960625    -4.003454536655
H                     5.205572425272    -1.904264714088    -1.783329792926
H                     3.267830029340     0.805850715342    -4.511583236928
H                     3.270203145709   -17.504259826003    -6.855042048414
H                     1.085709903864   -18.439397095999    -7.697108053939
H                     3.433258059248    -1.480631337159    -0.110464488577
H                     1.508685217182     1.235124840873    -2.832507201912
H                     0.977839389056    -2.920104895445     2.029398460621
H                     0.489437023461    -1.973679746369    -2.129592365679
H                    -1.812517652086    -1.824818540393     0.869046931127
H                     1.198714755267    -5.326252822780     1.448796242544
H                     0.680444696550    -4.346469829330    -2.712109041070
H                    -3.341655674295    -1.283120779956     2.737388661940
H                     3.411058217994   -15.049845020854    -6.379657389284
H                    -0.412738845853     1.430139888311     4.328605632215
H                    -0.829270717533   -16.871371475735    -8.026442454102
H                     1.765231736526     1.538386060729     3.390359906491
H                     2.263042925844     0.275154221025     2.270344306618
H                     1.300989718499     2.269839884317    -0.826405461067
H                    -0.093091643085     1.748250048244     0.115253960384
H                     1.230418598058     3.058530795620     1.588859327048
H                     2.741812408793     2.279271573788     1.117902764607
H                     2.229424546363   -12.719383060959    -7.157029803313
H                     0.439958303375   -12.762992009838    -6.979589926982
H                     0.314327786444    -8.716155625996    -4.091054696154
H                     2.054998762881    -8.487064344371    -4.192881970175
H                     0.472137162089    -8.783557287159    -1.575180143778
H                     2.213503805472    -8.547742184644    -1.679798869919
H                     2.397520036880   -10.710257739119    -3.048102506708
H                     0.652028081424   -10.935059647860    -2.979644068071
H                     0.092624887618    -6.576519799656    -2.677054368804
H                     1.850668111578    -6.341292829984    -2.810871728152
H                     0.530870556577   -10.853890801256    -5.491723398535
H                     2.313334885467   -10.721241706436    -5.555719254004
H                    -3.595497770003    -0.021690772778     4.652383671666
