
  -OEChem-05262117483D

 29 31  0     1  0  0  0  0  0999 V2000
   -0.6595   -1.8943    0.1314 C   0  0  0  0  0  0  0  0  0  0  0  0
   -1.9376   -1.4182    0.1252 C   0  0  0  0  0  0  0  0  0  0  0  0
    0.1899   -0.7550   -0.1118 C   0  0  0  0  0  0  0  0  0  0  0  0
   -0.6398    0.3190   -0.2564 C   0  0  0  0  0  0  0  0  0  0  0  0
    2.6072   -2.7114    0.7377 C   0  0  0  0  0  0  0  0  0  0  0  0
   -0.2645    1.7297   -0.5556 C   0  0  0  0  0  0  0  0  0  0  0  0
    1.2020    1.7341   -1.0368 C   0  0  0  0  0  0  0  0  0  0  0  0
    2.0982    0.8465   -0.1580 C   0  0  0  0  0  0  0  0  0  0  0  0
    2.9660   -4.7748    0.0549 C   0  0  0  0  0  0  0  0  0  0  0  0
    3.1633   -4.7144    1.5914 C   0  0  0  0  0  0  0  0  0  0  0  0
    1.6905   -0.6385   -0.2068 C   0  0  1  0  0  0  0  0  0  0  0  0
    2.4753   -3.4391   -0.3112 N   0  0  0  0  0  0  0  0  0  0  0  0
    2.3960   -1.3661    0.8551 N   0  0  0  0  0  0  0  0  0  0  0  0
   -1.9488   -0.0623   -0.1139 O   0  0  0  0  0  0  0  0  0  0  0  0
    3.0596   -3.2978    1.8973 O   0  0  0  0  0  0  0  0  0  0  0  0
   -0.3494   -2.9207    0.2716 H   0  0  0  0  0  0  0  0  0  0  0  0
   -2.9069   -1.8771    0.2568 H   0  0  0  0  0  0  0  0  0  0  0  0
   -0.9259    2.1538   -1.3195 H   0  0  0  0  0  0  0  0  0  0  0  0
   -0.3734    2.3577    0.3397 H   0  0  0  0  0  0  0  0  0  0  0  0
    1.2401    1.3734   -2.0719 H   0  0  0  0  0  0  0  0  0  0  0  0
    1.5868    2.7592   -1.0414 H   0  0  0  0  0  0  0  0  0  0  0  0
    3.1463    0.9370   -0.4595 H   0  0  0  0  0  0  0  0  0  0  0  0
    2.0344    1.1955    0.8820 H   0  0  0  0  0  0  0  0  0  0  0  0
    3.9058   -4.9888   -0.4700 H   0  0  0  0  0  0  0  0  0  0  0  0
    2.2446   -5.5453   -0.2358 H   0  0  0  0  0  0  0  0  0  0  0  0
    2.3764   -5.2363    2.1455 H   0  0  0  0  0  0  0  0  0  0  0  0
    4.1402   -5.0615    1.9344 H   0  0  0  0  0  0  0  0  0  0  0  0
    2.0329   -1.0865   -1.1440 H   0  0  0  0  0  0  0  0  0  0  0  0
    2.1944   -1.0655    1.8027 H   0  0  0  0  0  0  0  0  0  0  0  0
  1  2  2  0  0  0  0
  1  3  1  0  0  0  0
  1 16  1  0  0  0  0
  2 14  1  0  0  0  0
  2 17  1  0  0  0  0
  3  4  2  0  0  0  0
  3 11  1  0  0  0  0
  4  6  1  0  0  0  0
  4 14  1  0  0  0  0
  5 12  2  0  0  0  0
  5 13  1  0  0  0  0
  5 15  1  0  0  0  0
  6  7  1  0  0  0  0
  6 18  1  0  0  0  0
  6 19  1  0  0  0  0
  7  8  1  0  0  0  0
  7 20  1  0  0  0  0
  7 21  1  0  0  0  0
  8 11  1  0  0  0  0
  8 22  1  0  0  0  0
  8 23  1  0  0  0  0
  9 10  1  0  0  0  0
  9 12  1  0  0  0  0
  9 24  1  0  0  0  0
  9 25  1  0  0  0  0
 10 15  1  0  0  0  0
 10 26  1  0  0  0  0
 10 27  1  0  0  0  0
 11 13  1  0  0  0  0
 11 28  1  0  0  0  0
 13 29  1  0  0  0  0
M  END
$$$$
