
  -OEChem-05262117483D

 39 39  0     1  0  0  0  0  0999 V2000
   -0.6267   -0.6581   -0.0334 C   0  0  0  0  0  0  0  0  0  0  0  0
   -1.1051   -1.9137    0.7069 C   0  0  0  0  0  0  0  0  0  0  0  0
    0.2501    0.0647    0.9951 C   0  0  0  0  0  0  0  0  0  0  0  0
    0.1351   -2.3919    1.4616 C   0  0  2  0  0  0  0  0  0  0  0  0
   -0.0806   -3.3038    2.6635 C   0  0  0  0  0  0  0  0  0  0  0  0
    1.2291   -3.6643    3.3762 C   0  0  0  0  0  0  0  0  0  0  0  0
    3.5864   -5.8312    7.7420 C   0  0  0  0  0  0  0  0  0  0  0  0
    3.3555   -6.7673    8.9349 C   0  0  0  0  0  0  0  0  0  0  0  0
    1.0269   -4.5981    4.5719 C   0  0  0  0  0  0  0  0  0  0  0  0
    2.3234   -5.7514    6.8801 C   0  0  0  0  0  0  0  0  0  0  0  0
    4.5706   -6.8542    9.8382 C   0  0  0  0  0  0  0  0  0  0  0  0
    0.8030   -1.0594    1.8870 N   0  3  0  0  0  0  0  0  0  0  0  0
    2.8396   -3.2780    5.9759 O   0  0  0  0  0  0  0  0  0  0  0  0
    3.6056   -5.2682    4.5705 O   0  0  0  0  0  0  0  0  0  0  0  0
    4.3441   -7.6901   10.8767 F   0  0  0  0  0  0  0  0  0  0  0  0
    5.6586   -7.3149    9.1736 F   0  0  0  0  0  0  0  0  0  0  0  0
    4.8981   -5.6433   10.3544 F   0  0  0  0  0  0  0  0  0  0  0  0
    2.6200   -4.6470    5.4704 S   0  0  0  0  0  0  0  0  0  0  0  0
   -0.0387   -0.9306   -0.9144 H   0  0  0  0  0  0  0  0  0  0  0  0
   -1.4469   -0.0186   -0.3640 H   0  0  0  0  0  0  0  0  0  0  0  0
   -1.9107   -1.6749    1.4105 H   0  0  0  0  0  0  0  0  0  0  0  0
   -1.4698   -2.6899    0.0314 H   0  0  0  0  0  0  0  0  0  0  0  0
    1.0869    0.6204    0.5734 H   0  0  0  0  0  0  0  0  0  0  0  0
   -0.3275    0.7263    1.6412 H   0  0  0  0  0  0  0  0  0  0  0  0
    0.8439   -2.8445    0.7623 H   0  0  0  0  0  0  0  0  0  0  0  0
   -0.7849   -2.8287    3.3596 H   0  0  0  0  0  0  0  0  0  0  0  0
   -0.5769   -4.2070    2.2926 H   0  0  0  0  0  0  0  0  0  0  0  0
    1.7164   -2.7563    3.7522 H   0  0  0  0  0  0  0  0  0  0  0  0
    1.9248   -4.1337    2.6734 H   0  0  0  0  0  0  0  0  0  0  0  0
    3.8472   -4.8315    8.0981 H   0  0  0  0  0  0  0  0  0  0  0  0
    4.4191   -6.1990    7.1372 H   0  0  0  0  0  0  0  0  0  0  0  0
    2.5222   -6.4232    9.5547 H   0  0  0  0  0  0  0  0  0  0  0  0
    3.1290   -7.7848    8.6032 H   0  0  0  0  0  0  0  0  0  0  0  0
    0.2754   -4.2167    5.2689 H   0  0  0  0  0  0  0  0  0  0  0  0
    0.7721   -5.6154    4.2638 H   0  0  0  0  0  0  0  0  0  0  0  0
    2.0503   -6.7242    6.4604 H   0  0  0  0  0  0  0  0  0  0  0  0
    1.4770   -5.3338    7.4336 H   0  0  0  0  0  0  0  0  0  0  0  0
    1.8229   -1.1268    1.8231 H   0  0  0  0  0  0  0  0  0  0  0  0
    0.5966   -0.8661    2.8721 H   0  0  0  0  0  0  0  0  0  0  0  0
  1  2  1  0  0  0  0
  1  3  1  0  0  0  0
  1 19  1  0  0  0  0
  1 20  1  0  0  0  0
  2  4  1  0  0  0  0
  2 21  1  0  0  0  0
  2 22  1  0  0  0  0
  3 12  1  0  0  0  0
  3 23  1  0  0  0  0
  3 24  1  0  0  0  0
  4  5  1  0  0  0  0
  4 12  1  0  0  0  0
  4 25  1  0  0  0  0
  5  6  1  0  0  0  0
  5 26  1  0  0  0  0
  5 27  1  0  0  0  0
  6  9  1  0  0  0  0
  6 28  1  0  0  0  0
  6 29  1  0  0  0  0
  7  8  1  0  0  0  0
  7 10  1  0  0  0  0
  7 30  1  0  0  0  0
  7 31  1  0  0  0  0
  8 11  1  0  0  0  0
  8 32  1  0  0  0  0
  8 33  1  0  0  0  0
  9 18  1  0  0  0  0
  9 34  1  0  0  0  0
  9 35  1  0  0  0  0
 10 18  1  0  0  0  0
 10 36  1  0  0  0  0
 10 37  1  0  0  0  0
 11 15  1  0  0  0  0
 11 16  1  0  0  0  0
 11 17  1  0  0  0  0
 12 38  1  0  0  0  0
 12 39  1  0  0  0  0
 13 18  2  0  0  0  0
 14 18  2  0  0  0  0
M  CHG  1  12   1
M  END
$$$$
