
  -OEChem-05262117483D

 74 78  0     1  0  0  0  0  0999 V2000
    4.3545   -0.5824   -3.2647 C   0  0  0  0  0  0  0  0  0  0  0  0
    4.3945   -1.2195   -2.0188 C   0  0  0  0  0  0  0  0  0  0  0  0
    3.3112    0.3054   -3.5472 C   0  0  0  0  0  0  0  0  0  0  0  0
    2.4093  -16.8596   -7.0124 C   0  0  0  0  0  0  0  0  0  0  0  0
    1.2002  -17.3814   -7.4795 C   0  0  0  0  0  0  0  0  0  0  0  0
    3.3985   -0.9783   -1.0724 C   0  0  0  0  0  0  0  0  0  0  0  0
    2.3202    0.5522   -2.5935 C   0  0  0  0  0  0  0  0  0  0  0  0
    0.9234   -3.2307    0.9894 C   0  0  0  0  0  0  0  0  0  0  0  0
    0.6487   -2.6991   -1.3380 C   0  0  0  0  0  0  0  0  0  0  0  0
   -1.5053   -1.0993    1.6169 C   0  0  0  0  0  0  0  0  0  0  0  0
    1.0451   -4.5794    0.6751 C   0  0  0  0  0  0  0  0  0  0  0  0
    0.7601   -4.0515   -1.6720 C   0  0  0  0  0  0  0  0  0  0  0  0
   -2.3683   -0.7992    2.6701 C   0  0  0  0  0  0  0  0  0  0  0  0
    2.4901  -15.4929   -6.7500 C   0  0  0  0  0  0  0  0  0  0  0  0
   -0.7099    0.7320    3.5504 C   0  0  0  0  0  0  0  0  0  0  0  0
    0.1288  -16.5034   -7.6625 C   0  0  0  0  0  0  0  0  0  0  0  0
    0.7415   -2.2568   -0.0117 C   0  0  0  0  0  0  0  0  0  0  0  0
    2.3377   -0.0944   -1.3448 C   0  0  0  0  0  0  0  0  0  0  0  0
   -0.2498   -0.4845    1.4936 C   0  0  0  0  0  0  0  0  0  0  0  0
    0.1538    0.4364    2.4933 C   0  0  0  0  0  0  0  0  0  0  0  0
    0.9692   -5.0010   -0.6621 C   0  0  0  0  0  0  0  0  0  0  0  0
   -1.9675    0.1267    3.6404 C   0  0  0  0  0  0  0  0  0  0  0  0
    1.3565  -14.6923   -6.9616 C   0  0  0  0  0  0  0  0  0  0  0  0
    0.6365   -0.8177    0.3464 C   0  0  0  0  0  0  0  0  0  0  0  0
    1.2877    0.1704   -0.3280 C   0  0  0  0  0  0  0  0  0  0  0  0
    1.5252    1.0693    2.4312 C   0  0  0  0  0  0  0  0  0  0  0  0
    0.9885    1.6230   -0.0022 C   0  0  0  0  0  0  0  0  0  0  0  0
    1.6746    2.1002    1.2936 C   0  0  0  0  0  0  0  0  0  0  0  0
    1.3837  -13.2176   -6.6710 C   0  0  0  0  0  0  0  0  0  0  0  0
    1.2624   -8.9483   -3.5880 C   0  0  0  0  0  0  0  0  0  0  0  0
    1.2642   -8.3331   -2.1841 C   0  0  0  0  0  0  0  0  0  0  0  0
    1.4566  -10.4698   -3.5589 C   0  0  0  0  0  0  0  0  0  0  0  0
    1.0605   -6.8257   -2.2202 C   0  0  0  0  0  0  0  0  0  0  0  0
    1.4632  -11.0749   -4.9609 C   0  0  0  0  0  0  0  0  0  0  0  0
    0.1935  -15.1888   -7.4117 N   0  0  0  0  0  0  0  0  0  0  0  0
    0.3089  -13.3732   -4.1625 O   0  0  0  0  0  0  0  0  0  0  0  0
   -2.7613    0.4705    4.7096 O   0  0  0  0  0  0  0  0  0  0  0  0
    1.1005   -6.3474   -0.8742 O   0  0  0  0  0  0  0  0  0  0  0  0
    1.5846  -12.9140   -4.8424 S   0  0  1  0  0  0  0  0  0  0  0  0
    5.1292   -0.7714   -4.0035 H   0  0  0  0  0  0  0  0  0  0  0  0
    5.2056   -1.9043   -1.7833 H   0  0  0  0  0  0  0  0  0  0  0  0
    3.2678    0.8059   -4.5116 H   0  0  0  0  0  0  0  0  0  0  0  0
    3.2702  -17.5043   -6.8550 H   0  0  0  0  0  0  0  0  0  0  0  0
    1.0857  -18.4394   -7.6971 H   0  0  0  0  0  0  0  0  0  0  0  0
    3.4333   -1.4806   -0.1105 H   0  0  0  0  0  0  0  0  0  0  0  0
    1.5087    1.2351   -2.8325 H   0  0  0  0  0  0  0  0  0  0  0  0
    0.9778   -2.9201    2.0294 H   0  0  0  0  0  0  0  0  0  0  0  0
    0.4894   -1.9737   -2.1296 H   0  0  0  0  0  0  0  0  0  0  0  0
   -1.8125   -1.8248    0.8690 H   0  0  0  0  0  0  0  0  0  0  0  0
    1.1987   -5.3263    1.4488 H   0  0  0  0  0  0  0  0  0  0  0  0
    0.6804   -4.3465   -2.7121 H   0  0  0  0  0  0  0  0  0  0  0  0
   -3.3417   -1.2831    2.7374 H   0  0  0  0  0  0  0  0  0  0  0  0
    3.4111  -15.0498   -6.3797 H   0  0  0  0  0  0  0  0  0  0  0  0
   -0.4127    1.4301    4.3286 H   0  0  0  0  0  0  0  0  0  0  0  0
   -0.8293  -16.8714   -8.0264 H   0  0  0  0  0  0  0  0  0  0  0  0
    1.7652    1.5384    3.3904 H   0  0  0  0  0  0  0  0  0  0  0  0
    2.2630    0.2752    2.2703 H   0  0  0  0  0  0  0  0  0  0  0  0
    1.3010    2.2698   -0.8264 H   0  0  0  0  0  0  0  0  0  0  0  0
   -0.0931    1.7483    0.1153 H   0  0  0  0  0  0  0  0  0  0  0  0
    1.2304    3.0585    1.5889 H   0  0  0  0  0  0  0  0  0  0  0  0
    2.7418    2.2793    1.1179 H   0  0  0  0  0  0  0  0  0  0  0  0
    2.2294  -12.7194   -7.1570 H   0  0  0  0  0  0  0  0  0  0  0  0
    0.4400  -12.7630   -6.9796 H   0  0  0  0  0  0  0  0  0  0  0  0
    0.3143   -8.7162   -4.0911 H   0  0  0  0  0  0  0  0  0  0  0  0
    2.0550   -8.4871   -4.1929 H   0  0  0  0  0  0  0  0  0  0  0  0
    0.4721   -8.7836   -1.5752 H   0  0  0  0  0  0  0  0  0  0  0  0
    2.2135   -8.5477   -1.6798 H   0  0  0  0  0  0  0  0  0  0  0  0
    2.3975  -10.7103   -3.0481 H   0  0  0  0  0  0  0  0  0  0  0  0
    0.6520  -10.9351   -2.9796 H   0  0  0  0  0  0  0  0  0  0  0  0
    0.0926   -6.5765   -2.6771 H   0  0  0  0  0  0  0  0  0  0  0  0
    1.8507   -6.3413   -2.8109 H   0  0  0  0  0  0  0  0  0  0  0  0
    0.5309  -10.8539   -5.4917 H   0  0  0  0  0  0  0  0  0  0  0  0
    2.3133  -10.7212   -5.5557 H   0  0  0  0  0  0  0  0  0  0  0  0
   -3.5955   -0.0217    4.6524 H   0  0  0  0  0  0  0  0  0  0  0  0
  1  2  1  0  0  0  0
  1  3  2  0  0  0  0
  1 40  1  0  0  0  0
  2  6  2  0  0  0  0
  2 41  1  0  0  0  0
  3  7  1  0  0  0  0
  3 42  1  0  0  0  0
  4  5  1  0  0  0  0
  4 14  2  0  0  0  0
  4 43  1  0  0  0  0
  5 16  2  0  0  0  0
  5 44  1  0  0  0  0
  6 18  1  0  0  0  0
  6 45  1  0  0  0  0
  7 18  2  0  0  0  0
  7 46  1  0  0  0  0
  8 11  2  0  0  0  0
  8 17  1  0  0  0  0
  8 47  1  0  0  0  0
  9 12  1  0  0  0  0
  9 17  2  0  0  0  0
  9 48  1  0  0  0  0
 10 13  2  0  0  0  0
 10 19  1  0  0  0  0
 10 49  1  0  0  0  0
 11 21  1  0  0  0  0
 11 50  1  0  0  0  0
 12 21  2  0  0  0  0
 12 51  1  0  0  0  0
 13 22  1  0  0  0  0
 13 52  1  0  0  0  0
 14 23  1  0  0  0  0
 14 53  1  0  0  0  0
 15 20  1  0  0  0  0
 15 22  2  0  0  0  0
 15 54  1  0  0  0  0
 16 35  1  0  0  0  0
 16 55  1  0  0  0  0
 17 24  1  0  0  0  0
 18 25  1  0  0  0  0
 19 20  2  0  0  0  0
 19 24  1  0  0  0  0
 20 26  1  0  0  0  0
 21 38  1  0  0  0  0
 22 37  1  0  0  0  0
 23 29  1  0  0  0  0
 23 35  2  0  0  0  0
 24 25  2  0  0  0  0
 25 27  1  0  0  0  0
 26 28  1  0  0  0  0
 26 56  1  0  0  0  0
 26 57  1  0  0  0  0
 27 28  1  0  0  0  0
 27 58  1  0  0  0  0
 27 59  1  0  0  0  0
 28 60  1  0  0  0  0
 28 61  1  0  0  0  0
 29 39  1  0  0  0  0
 29 62  1  0  0  0  0
 29 63  1  0  0  0  0
 30 31  1  0  0  0  0
 30 32  1  0  0  0  0
 30 64  1  0  0  0  0
 30 65  1  0  0  0  0
 31 33  1  0  0  0  0
 31 66  1  0  0  0  0
 31 67  1  0  0  0  0
 32 34  1  0  0  0  0
 32 68  1  0  0  0  0
 32 69  1  0  0  0  0
 33 38  1  0  0  0  0
 33 70  1  0  0  0  0
 33 71  1  0  0  0  0
 34 39  1  0  0  0  0
 34 72  1  0  0  0  0
 34 73  1  0  0  0  0
 36 39  2  0  0  0  0
 37 74  1  0  0  0  0
M  END
$$$$
