
  -OEChem-05262117483D

 74 78  0     1  0  0  0  0  0999 V2000
    3.6925   -1.0484   -4.2196 C   0  0  0  0  0  0  0  0  0  0  0  0
    3.9660   -1.7811   -3.0587 C   0  0  0  0  0  0  0  0  0  0  0  0
    2.7622   -0.0052   -4.1683 C   0  0  0  0  0  0  0  0  0  0  0  0
    2.2807  -15.1729   -8.5376 C   0  0  0  0  0  0  0  0  0  0  0  0
    1.6752  -14.8182   -9.7459 C   0  0  0  0  0  0  0  0  0  0  0  0
    3.3102   -1.4800   -1.8649 C   0  0  0  0  0  0  0  0  0  0  0  0
    2.1139    0.3008   -2.9690 C   0  0  0  0  0  0  0  0  0  0  0  0
    1.1393   -3.5135    0.7309 C   0  0  0  0  0  0  0  0  0  0  0  0
    0.3709   -2.7847   -1.4264 C   0  0  0  0  0  0  0  0  0  0  0  0
   -0.6514   -1.1095    2.0732 C   0  0  0  0  0  0  0  0  0  0  0  0
    0.9550   -4.8499    0.3606 C   0  0  0  0  0  0  0  0  0  0  0  0
    0.1731   -4.1052   -1.8081 C   0  0  0  0  0  0  0  0  0  0  0  0
   -1.1397   -0.7695    3.3343 C   0  0  0  0  0  0  0  0  0  0  0  0
    2.4914  -14.1817   -7.5803 C   0  0  0  0  0  0  0  0  0  0  0  0
    0.9227    0.4230    3.7759 C   0  0  0  0  0  0  0  0  0  0  0  0
    1.3119  -13.4823   -9.9357 C   0  0  0  0  0  0  0  0  0  0  0  0
    0.8714   -2.4576   -0.1509 C   0  0  0  0  0  0  0  0  0  0  0  0
    2.3656   -0.4389   -1.7996 C   0  0  0  0  0  0  0  0  0  0  0  0
    0.6090   -0.6809    1.6294 C   0  0  0  0  0  0  0  0  0  0  0  0
    1.4102    0.0882    2.5104 C   0  0  0  0  0  0  0  0  0  0  0  0
    0.4711   -5.1514   -0.9195 C   0  0  0  0  0  0  0  0  0  0  0  0
   -0.3466    0.0055    4.1888 C   0  0  0  0  0  0  0  0  0  0  0  0
    2.0876  -12.8671   -7.8623 C   0  0  0  0  0  0  0  0  0  0  0  0
    1.0899   -1.0483    0.2698 C   0  0  0  0  0  0  0  0  0  0  0  0
    1.6811   -0.1116   -0.5227 C   0  0  0  0  0  0  0  0  0  0  0  0
    2.7963    0.5206    2.0899 C   0  0  0  0  0  0  0  0  0  0  0  0
    1.7133    1.3380   -0.0724 C   0  0  0  0  0  0  0  0  0  0  0  0
    2.7920    1.6083    0.9959 C   0  0  0  0  0  0  0  0  0  0  0  0
    2.2683  -11.7676   -6.8537 C   0  0  0  0  0  0  0  0  0  0  0  0
    1.1077   -9.0047   -2.5227 C   0  0  0  0  0  0  0  0  0  0  0  0
    0.2283   -8.8040   -1.2834 C   0  0  0  0  0  0  0  0  0  0  0  0
    0.7909  -10.3136   -3.2565 C   0  0  0  0  0  0  0  0  0  0  0  0
    0.5359   -7.5211   -0.5252 C   0  0  0  0  0  0  0  0  0  0  0  0
    1.6537  -10.4948   -4.5032 C   0  0  0  0  0  0  0  0  0  0  0  0
    1.5076  -12.5216   -9.0225 N   0  0  0  0  0  0  0  0  0  0  0  0
   -0.2618  -11.8581   -5.8231 O   0  0  0  0  0  0  0  0  0  0  0  0
   -0.7572    0.3765    5.4481 O   0  0  0  0  0  0  0  0  0  0  0  0
    0.2474   -6.4180   -1.3884 O   0  0  0  0  0  0  0  0  0  0  0  0
    1.1731  -12.0523   -5.3714 S   0  0  1  0  0  0  0  0  0  0  0  0
    4.2005   -1.2850   -5.1510 H   0  0  0  0  0  0  0  0  0  0  0  0
    4.6935   -2.5888   -3.0840 H   0  0  0  0  0  0  0  0  0  0  0  0
    2.5390    0.5700   -5.0636 H   0  0  0  0  0  0  0  0  0  0  0  0
    2.5809  -16.1997   -8.3454 H   0  0  0  0  0  0  0  0  0  0  0  0
    1.4874  -15.5533  -10.5231 H   0  0  0  0  0  0  0  0  0  0  0  0
    3.5230   -2.0566   -0.9699 H   0  0  0  0  0  0  0  0  0  0  0  0
    1.3834    1.1057   -2.9480 H   0  0  0  0  0  0  0  0  0  0  0  0
    1.5064   -3.2907    1.7292 H   0  0  0  0  0  0  0  0  0  0  0  0
    0.1346   -1.9890   -2.1256 H   0  0  0  0  0  0  0  0  0  0  0  0
   -1.2633   -1.7182    1.4134 H   0  0  0  0  0  0  0  0  0  0  0  0
    1.1856   -5.6334    1.0735 H   0  0  0  0  0  0  0  0  0  0  0  0
   -0.2171   -4.3525   -2.7912 H   0  0  0  0  0  0  0  0  0  0  0  0
   -2.1263   -1.1056    3.6503 H   0  0  0  0  0  0  0  0  0  0  0  0
    2.9537  -14.4184   -6.6253 H   0  0  0  0  0  0  0  0  0  0  0  0
    1.5275    1.0064    4.4652 H   0  0  0  0  0  0  0  0  0  0  0  0
    0.8394  -13.1664  -10.8645 H   0  0  0  0  0  0  0  0  0  0  0  0
    3.3599    0.8718    2.9598 H   0  0  0  0  0  0  0  0  0  0  0  0
    3.3259   -0.3549    1.6977 H   0  0  0  0  0  0  0  0  0  0  0  0
    1.8884    1.9980   -0.9263 H   0  0  0  0  0  0  0  0  0  0  0  0
    0.7380    1.6049    0.3482 H   0  0  0  0  0  0  0  0  0  0  0  0
    2.6018    2.5927    1.4403 H   0  0  0  0  0  0  0  0  0  0  0  0
    3.7857    1.6484    0.5346 H   0  0  0  0  0  0  0  0  0  0  0  0
    3.2938  -11.7259   -6.4714 H   0  0  0  0  0  0  0  0  0  0  0  0
    1.9823  -10.8103   -7.2944 H   0  0  0  0  0  0  0  0  0  0  0  0
    0.9673   -8.1572   -3.2020 H   0  0  0  0  0  0  0  0  0  0  0  0
    2.1649   -8.9939   -2.2231 H   0  0  0  0  0  0  0  0  0  0  0  0
   -0.8288   -8.7981   -1.5738 H   0  0  0  0  0  0  0  0  0  0  0  0
    0.3623   -9.6433   -0.5888 H   0  0  0  0  0  0  0  0  0  0  0  0
    0.9393  -11.1639   -2.5780 H   0  0  0  0  0  0  0  0  0  0  0  0
   -0.2623  -10.3270   -3.5565 H   0  0  0  0  0  0  0  0  0  0  0  0
    1.5936   -7.4916   -0.2270 H   0  0  0  0  0  0  0  0  0  0  0  0
   -0.0791   -7.4524    0.3822 H   0  0  0  0  0  0  0  0  0  0  0  0
    1.5007   -9.6734   -5.2112 H   0  0  0  0  0  0  0  0  0  0  0  0
    2.7194  -10.5685   -4.2567 H   0  0  0  0  0  0  0  0  0  0  0  0
   -1.6486    0.0262    5.6034 H   0  0  0  0  0  0  0  0  0  0  0  0
  1  2  1  0  0  0  0
  1  3  2  0  0  0  0
  1 40  1  0  0  0  0
  2  6  2  0  0  0  0
  2 41  1  0  0  0  0
  3  7  1  0  0  0  0
  3 42  1  0  0  0  0
  4  5  1  0  0  0  0
  4 14  2  0  0  0  0
  4 43  1  0  0  0  0
  5 16  2  0  0  0  0
  5 44  1  0  0  0  0
  6 18  1  0  0  0  0
  6 45  1  0  0  0  0
  7 18  2  0  0  0  0
  7 46  1  0  0  0  0
  8 11  2  0  0  0  0
  8 17  1  0  0  0  0
  8 47  1  0  0  0  0
  9 12  1  0  0  0  0
  9 17  2  0  0  0  0
  9 48  1  0  0  0  0
 10 13  2  0  0  0  0
 10 19  1  0  0  0  0
 10 49  1  0  0  0  0
 11 21  1  0  0  0  0
 11 50  1  0  0  0  0
 12 21  2  0  0  0  0
 12 51  1  0  0  0  0
 13 22  1  0  0  0  0
 13 52  1  0  0  0  0
 14 23  1  0  0  0  0
 14 53  1  0  0  0  0
 15 20  1  0  0  0  0
 15 22  2  0  0  0  0
 15 54  1  0  0  0  0
 16 35  1  0  0  0  0
 16 55  1  0  0  0  0
 17 24  1  0  0  0  0
 18 25  1  0  0  0  0
 19 20  2  0  0  0  0
 19 24  1  0  0  0  0
 20 26  1  0  0  0  0
 21 38  1  0  0  0  0
 22 37  1  0  0  0  0
 23 29  1  0  0  0  0
 23 35  2  0  0  0  0
 24 25  2  0  0  0  0
 25 27  1  0  0  0  0
 26 28  1  0  0  0  0
 26 56  1  0  0  0  0
 26 57  1  0  0  0  0
 27 28  1  0  0  0  0
 27 58  1  0  0  0  0
 27 59  1  0  0  0  0
 28 60  1  0  0  0  0
 28 61  1  0  0  0  0
 29 39  1  0  0  0  0
 29 62  1  0  0  0  0
 29 63  1  0  0  0  0
 30 31  1  0  0  0  0
 30 32  1  0  0  0  0
 30 64  1  0  0  0  0
 30 65  1  0  0  0  0
 31 33  1  0  0  0  0
 31 66  1  0  0  0  0
 31 67  1  0  0  0  0
 32 34  1  0  0  0  0
 32 68  1  0  0  0  0
 32 69  1  0  0  0  0
 33 38  1  0  0  0  0
 33 70  1  0  0  0  0
 33 71  1  0  0  0  0
 34 39  1  0  0  0  0
 34 72  1  0  0  0  0
 34 73  1  0  0  0  0
 36 39  2  0  0  0  0
 37 74  1  0  0  0  0
M  END
$$$$
