
  -OEChem-05262117483D

 54 56  0     0  0  0  0  0  0999 V2000
   -2.7174   -3.3728   -7.0990 C   0  0  0  0  0  0  0  0  0  0  0  0
   -3.1390   -2.1125   -6.6939 C   0  0  0  0  0  0  0  0  0  0  0  0
   -1.3697   -3.7466   -6.9755 C   0  0  0  0  0  0  0  0  0  0  0  0
   -0.8529   -1.5261   -6.0702 C   0  0  0  0  0  0  0  0  0  0  0  0
   -2.2118   -1.1868   -6.2068 C   0  0  0  0  0  0  0  0  0  0  0  0
   -0.4460   -2.8228   -6.4583 C   0  0  0  0  0  0  0  0  0  0  0  0
   -0.4785   -6.3379   -9.4785 C   0  0  0  0  0  0  0  0  0  0  0  0
   -2.7168   -6.7363   -8.2739 C   0  0  0  0  0  0  0  0  0  0  0  0
   -0.9830   -5.1510   -7.3383 C   0  0  0  0  0  0  0  0  0  0  0  0
    0.0025   -7.7370   -9.1325 C   0  0  0  0  0  0  0  0  0  0  0  0
   -2.3644   -8.2081   -8.3472 C   0  0  0  0  0  0  0  0  0  0  0  0
   -0.8732   -8.4838   -8.1153 C   0  0  0  0  0  0  0  0  0  0  0  0
    3.5777    2.5895   -5.4302 C   0  0  0  0  0  0  0  0  0  0  0  0
    3.7307    1.4538   -4.3761 C   0  0  0  0  0  0  0  0  0  0  0  0
    2.3596    2.1966   -6.3088 C   0  0  0  0  0  0  0  0  0  0  0  0
    2.7675    0.3398   -4.8286 C   0  0  0  0  0  0  0  0  0  0  0  0
   -1.6047   -5.7274   -8.6307 C   0  0  0  0  0  0  0  0  0  0  0  0
    1.6221    1.1087   -5.5049 C   0  0  0  0  0  0  0  0  0  0  0  0
   -3.5191    2.6701   -7.2778 C   0  0  0  0  0  0  0  0  0  0  0  0
    0.7117    0.2599   -6.3653 C   0  0  0  0  0  0  0  0  0  0  0  0
   -2.9820    1.2482   -7.4264 C   0  0  0  0  0  0  0  0  0  0  0  0
   -0.0175   -5.7006  -10.4078 O   0  0  0  0  0  0  0  0  0  0  0  0
   -3.8297   -6.3351   -7.9820 O   0  0  0  0  0  0  0  0  0  0  0  0
   -0.2184   -5.8148   -6.6613 O   0  0  0  0  0  0  0  0  0  0  0  0
   -4.2724    0.2267   -5.3354 O   0  0  0  0  0  0  0  0  0  0  0  0
   -1.9495    1.2160   -4.9598 O   0  0  0  0  0  0  0  0  0  0  0  0
    0.0527   -0.6952   -5.5006 O   0  0  0  0  0  0  0  0  0  0  0  0
   -2.8894    0.4513   -5.7874 S   0  0  0  0  0  0  0  0  0  0  0  0
    1.2483   -3.2011   -6.3084 Cl  0  0  0  0  0  0  0  0  0  0  0  0
   -3.4407   -4.0913   -7.4729 H   0  0  0  0  0  0  0  0  0  0  0  0
   -4.1897   -1.8439   -6.7347 H   0  0  0  0  0  0  0  0  0  0  0  0
    0.0617   -8.2779  -10.0837 H   0  0  0  0  0  0  0  0  0  0  0  0
    1.0308   -7.6410   -8.7681 H   0  0  0  0  0  0  0  0  0  0  0  0
   -3.0066   -8.7429   -7.6428 H   0  0  0  0  0  0  0  0  0  0  0  0
   -2.6582   -8.5389   -9.3549 H   0  0  0  0  0  0  0  0  0  0  0  0
   -0.6002   -8.1818   -7.1025 H   0  0  0  0  0  0  0  0  0  0  0  0
   -0.6870   -9.5589   -8.1934 H   0  0  0  0  0  0  0  0  0  0  0  0
    3.4099    3.5529   -4.9396 H   0  0  0  0  0  0  0  0  0  0  0  0
    4.4793    2.7006   -6.0400 H   0  0  0  0  0  0  0  0  0  0  0  0
    4.7622    1.1000   -4.2880 H   0  0  0  0  0  0  0  0  0  0  0  0
    3.4337    1.8175   -3.3866 H   0  0  0  0  0  0  0  0  0  0  0  0
    1.7171    3.0499   -6.5480 H   0  0  0  0  0  0  0  0  0  0  0  0
    2.7042    1.7744   -7.2619 H   0  0  0  0  0  0  0  0  0  0  0  0
    3.2529   -0.3097   -5.5694 H   0  0  0  0  0  0  0  0  0  0  0  0
    2.4249   -0.2976   -4.0099 H   0  0  0  0  0  0  0  0  0  0  0  0
   -2.0534   -4.9195   -9.2087 H   0  0  0  0  0  0  0  0  0  0  0  0
    1.0000    1.5804   -4.7347 H   0  0  0  0  0  0  0  0  0  0  0  0
   -4.5196    2.6662   -6.8386 H   0  0  0  0  0  0  0  0  0  0  0  0
   -2.8615    3.2721   -6.6464 H   0  0  0  0  0  0  0  0  0  0  0  0
   -3.5767    3.1381   -8.2650 H   0  0  0  0  0  0  0  0  0  0  0  0
    1.2792   -0.2838   -7.1320 H   0  0  0  0  0  0  0  0  0  0  0  0
   -0.0440    0.8833   -6.8555 H   0  0  0  0  0  0  0  0  0  0  0  0
   -1.9734    1.2286   -7.8464 H   0  0  0  0  0  0  0  0  0  0  0  0
   -3.6347    0.6175   -8.0353 H   0  0  0  0  0  0  0  0  0  0  0  0
  1  2  1  0  0  0  0
  1  3  2  0  0  0  0
  1 30  1  0  0  0  0
  2  5  2  0  0  0  0
  2 31  1  0  0  0  0
  3  6  1  0  0  0  0
  3  9  1  0  0  0  0
  4  5  1  0  0  0  0
  4  6  2  0  0  0  0
  4 27  1  0  0  0  0
  5 28  1  0  0  0  0
  6 29  1  0  0  0  0
  7 10  1  0  0  0  0
  7 17  1  0  0  0  0
  7 22  2  0  0  0  0
  8 11  1  0  0  0  0
  8 17  1  0  0  0  0
  8 23  2  0  0  0  0
  9 17  1  0  0  0  0
  9 24  2  0  0  0  0
 10 12  1  0  0  0  0
 10 32  1  0  0  0  0
 10 33  1  0  0  0  0
 11 12  1  0  0  0  0
 11 34  1  0  0  0  0
 11 35  1  0  0  0  0
 12 36  1  0  0  0  0
 12 37  1  0  0  0  0
 13 14  1  0  0  0  0
 13 15  1  0  0  0  0
 13 38  1  0  0  0  0
 13 39  1  0  0  0  0
 14 16  1  0  0  0  0
 14 40  1  0  0  0  0
 14 41  1  0  0  0  0
 15 18  1  0  0  0  0
 15 42  1  0  0  0  0
 15 43  1  0  0  0  0
 16 18  1  0  0  0  0
 16 44  1  0  0  0  0
 16 45  1  0  0  0  0
 17 46  1  0  0  0  0
 18 20  1  0  0  0  0
 18 47  1  0  0  0  0
 19 21  1  0  0  0  0
 19 48  1  0  0  0  0
 19 49  1  0  0  0  0
 19 50  1  0  0  0  0
 20 27  1  0  0  0  0
 20 51  1  0  0  0  0
 20 52  1  0  0  0  0
 21 28  1  0  0  0  0
 21 53  1  0  0  0  0
 21 54  1  0  0  0  0
 25 28  2  0  0  0  0
 26 28  2  0  0  0  0
M  END
$$$$
