
  -OEChem-05262117483D

 39 39  0     1  0  0  0  0  0999 V2000
   -0.8457   -0.8425    0.1562 C   0  0  0  0  0  0  0  0  0  0  0  0
   -1.2932   -1.9258    1.1473 C   0  0  0  0  0  0  0  0  0  0  0  0
    0.0666    0.0776    0.9814 C   0  0  0  0  0  0  0  0  0  0  0  0
   -0.0351   -2.2167    1.9630 C   0  0  2  0  0  0  0  0  0  0  0  0
   -0.2046   -2.9246    3.3015 C   0  0  0  0  0  0  0  0  0  0  0  0
    1.1150   -3.0852    4.0749 C   0  0  0  0  0  0  0  0  0  0  0  0
    4.1857   -3.4641    7.9748 C   0  0  0  0  0  0  0  0  0  0  0  0
    4.3121   -2.5285    9.1833 C   0  0  0  0  0  0  0  0  0  0  0  0
    1.0118   -4.1114    5.2018 C   0  0  0  0  0  0  0  0  0  0  0  0
    2.8005   -3.3263    7.3385 C   0  0  0  0  0  0  0  0  0  0  0  0
    5.6934   -2.5774    9.8078 C   0  0  0  0  0  0  0  0  0  0  0  0
    0.5681   -0.8056    2.1384 N   0  3  0  0  0  0  0  0  0  0  0  0
    3.6678   -4.1019    4.9313 O   0  0  0  0  0  0  0  0  0  0  0  0
    2.5937   -5.8444    6.4740 O   0  0  0  0  0  0  0  0  0  0  0  0
    5.7715   -1.7489   10.8743 F   0  0  0  0  0  0  0  0  0  0  0  0
    6.0106   -3.8228   10.2335 F   0  0  0  0  0  0  0  0  0  0  0  0
    6.6529   -2.1956    8.9268 F   0  0  0  0  0  0  0  0  0  0  0  0
    2.6571   -4.4802    5.9375 S   0  0  0  0  0  0  0  0  0  0  0  0
   -0.2873   -1.2884   -0.6712 H   0  0  0  0  0  0  0  0  0  0  0  0
   -1.6813   -0.2838   -0.2683 H   0  0  0  0  0  0  0  0  0  0  0  0
   -2.0950   -1.5624    1.8003 H   0  0  0  0  0  0  0  0  0  0  0  0
   -1.6514   -2.8293    0.6503 H   0  0  0  0  0  0  0  0  0  0  0  0
    0.9307    0.4592    0.4386 H   0  0  0  0  0  0  0  0  0  0  0  0
   -0.4696    0.9147    1.4285 H   0  0  0  0  0  0  0  0  0  0  0  0
    0.6925   -2.7511    1.3447 H   0  0  0  0  0  0  0  0  0  0  0  0
   -0.9611   -2.4064    3.9055 H   0  0  0  0  0  0  0  0  0  0  0  0
   -0.6226   -3.9108    3.0722 H   0  0  0  0  0  0  0  0  0  0  0  0
    1.4376   -2.1214    4.4913 H   0  0  0  0  0  0  0  0  0  0  0  0
    1.9115   -3.4123    3.3987 H   0  0  0  0  0  0  0  0  0  0  0  0
    4.9518   -3.2246    7.2331 H   0  0  0  0  0  0  0  0  0  0  0  0
    4.3405   -4.4991    8.2900 H   0  0  0  0  0  0  0  0  0  0  0  0
    4.1304   -1.4868    8.9014 H   0  0  0  0  0  0  0  0  0  0  0  0
    3.5957   -2.7934    9.9663 H   0  0  0  0  0  0  0  0  0  0  0  0
    0.3421   -3.8087    6.0120 H   0  0  0  0  0  0  0  0  0  0  0  0
    0.6791   -5.0855    4.8313 H   0  0  0  0  0  0  0  0  0  0  0  0
    2.0003   -3.5884    8.0369 H   0  0  0  0  0  0  0  0  0  0  0  0
    2.6338   -2.3180    6.9453 H   0  0  0  0  0  0  0  0  0  0  0  0
    1.5910   -0.8446    2.1771 H   0  0  0  0  0  0  0  0  0  0  0  0
    0.2625   -0.4158    3.0351 H   0  0  0  0  0  0  0  0  0  0  0  0
  1  2  1  0  0  0  0
  1  3  1  0  0  0  0
  1 19  1  0  0  0  0
  1 20  1  0  0  0  0
  2  4  1  0  0  0  0
  2 21  1  0  0  0  0
  2 22  1  0  0  0  0
  3 12  1  0  0  0  0
  3 23  1  0  0  0  0
  3 24  1  0  0  0  0
  4  5  1  0  0  0  0
  4 12  1  0  0  0  0
  4 25  1  0  0  0  0
  5  6  1  0  0  0  0
  5 26  1  0  0  0  0
  5 27  1  0  0  0  0
  6  9  1  0  0  0  0
  6 28  1  0  0  0  0
  6 29  1  0  0  0  0
  7  8  1  0  0  0  0
  7 10  1  0  0  0  0
  7 30  1  0  0  0  0
  7 31  1  0  0  0  0
  8 11  1  0  0  0  0
  8 32  1  0  0  0  0
  8 33  1  0  0  0  0
  9 18  1  0  0  0  0
  9 34  1  0  0  0  0
  9 35  1  0  0  0  0
 10 18  1  0  0  0  0
 10 36  1  0  0  0  0
 10 37  1  0  0  0  0
 11 15  1  0  0  0  0
 11 16  1  0  0  0  0
 11 17  1  0  0  0  0
 12 38  1  0  0  0  0
 12 39  1  0  0  0  0
 13 18  2  0  0  0  0
 14 18  2  0  0  0  0
M  CHG  1  12   1
M  END
$$$$
