
  -OEChem-05262117483D

 25 26  0     0  0  0  0  0  0999 V2000
   -3.3200    1.0799   -3.8681 C   0  0  0  0  0  0  0  0  0  0  0  0
   -4.5765    0.7296   -4.3796 C   0  0  0  0  0  0  0  0  0  0  0  0
   -4.0650   -1.6168   -4.0347 C   0  0  0  0  0  0  0  0  0  0  0  0
   -2.4242    0.0965   -3.4348 C   0  0  0  0  0  0  0  0  0  0  0  0
   -2.8290   -1.2466   -3.5328 C   0  0  0  0  0  0  0  0  0  0  0  0
   -4.9405   -0.6109   -4.4594 C   0  0  0  0  0  0  0  0  0  0  0  0
    1.4926   -0.0883   -0.8992 C   0  0  0  0  0  0  0  0  0  0  0  0
    1.6925   -0.4192   -2.3787 C   0  0  0  0  0  0  0  0  0  0  0  0
    0.6835    1.6299   -2.2264 C   0  0  0  0  0  0  0  0  0  0  0  0
   -0.7217    1.6574   -2.8222 C   0  0  0  0  0  0  0  0  0  0  0  0
    0.6480    1.0725   -0.9196 O   0  0  0  0  0  0  0  0  0  0  0  0
    1.5916    0.8722   -3.0026 O   0  0  0  0  0  0  0  0  0  0  0  0
   -1.1857    0.3144   -2.9219 O   0  0  0  0  0  0  0  0  0  0  0  0
   -1.9698   -2.2073   -3.1196 F   0  0  0  0  0  0  0  0  0  0  0  0
   -6.5127   -1.0582   -5.0991 Cl  0  0  0  0  0  0  0  0  0  0  0  0
   -3.0510    2.1283   -3.8121 H   0  0  0  0  0  0  0  0  0  0  0  0
   -5.2621    1.5019   -4.7119 H   0  0  0  0  0  0  0  0  0  0  0  0
   -4.3303   -2.6672   -4.0895 H   0  0  0  0  0  0  0  0  0  0  0  0
    0.9810   -0.8800   -0.3464 H   0  0  0  0  0  0  0  0  0  0  0  0
    2.4400    0.1573   -0.4038 H   0  0  0  0  0  0  0  0  0  0  0  0
    2.6816   -0.8222   -2.6062 H   0  0  0  0  0  0  0  0  0  0  0  0
    0.9128   -1.0869   -2.7566 H   0  0  0  0  0  0  0  0  0  0  0  0
    1.0621    2.6607   -2.1852 H   0  0  0  0  0  0  0  0  0  0  0  0
   -0.6815    2.1242   -3.8146 H   0  0  0  0  0  0  0  0  0  0  0  0
   -1.3760    2.2463   -2.1665 H   0  0  0  0  0  0  0  0  0  0  0  0
  1  2  1  0  0  0  0
  1  4  2  0  0  0  0
  1 16  1  0  0  0  0
  2  6  2  0  0  0  0
  2 17  1  0  0  0  0
  3  5  2  0  0  0  0
  3  6  1  0  0  0  0
  3 18  1  0  0  0  0
  4  5  1  0  0  0  0
  4 13  1  0  0  0  0
  5 14  1  0  0  0  0
  6 15  1  0  0  0  0
  7  8  1  0  0  0  0
  7 11  1  0  0  0  0
  7 19  1  0  0  0  0
  7 20  1  0  0  0  0
  8 12  1  0  0  0  0
  8 21  1  0  0  0  0
  8 22  1  0  0  0  0
  9 10  1  0  0  0  0
  9 11  1  0  0  0  0
  9 12  1  0  0  0  0
  9 23  1  0  0  0  0
 10 13  1  0  0  0  0
 10 24  1  0  0  0  0
 10 25  1  0  0  0  0
M  END
$$$$
