
  -OEChem-05262117483D

 41 44  0     0  0  0  0  0  0999 V2000
    6.1552   -5.6416    6.3277 C   0  0  0  0  0  0  0  0  0  0  0  0
    5.4887   -4.6176    7.0291 C   0  0  0  0  0  0  0  0  0  0  0  0
    1.6209   -1.6707   -0.1270 C   0  0  0  0  0  0  0  0  0  0  0  0
    5.9881   -5.8104    4.9500 C   0  0  0  0  0  0  0  0  0  0  0  0
    4.6323   -3.7251    6.3730 C   0  0  0  0  0  0  0  0  0  0  0  0
    1.1970   -0.3440   -0.2021 C   0  0  0  0  0  0  0  0  0  0  0  0
    3.1594    0.1682   -1.5438 C   0  0  0  0  0  0  0  0  0  0  0  0
    2.8080   -2.1097   -0.7394 C   0  0  0  0  0  0  0  0  0  0  0  0
    5.1336   -4.9299    4.2764 C   0  0  0  0  0  0  0  0  0  0  0  0
    4.4694   -3.9059    4.9996 C   0  0  0  0  0  0  0  0  0  0  0  0
    3.5630   -1.1715   -1.4716 C   0  0  0  0  0  0  0  0  0  0  0  0
    1.9885    0.5673   -0.9054 C   0  0  0  0  0  0  0  0  0  0  0  0
    3.9719   -3.8524    2.8378 C   0  0  0  0  0  0  0  0  0  0  0  0
    3.2517   -3.5263   -0.5881 C   0  0  0  0  0  0  0  0  0  0  0  0
    3.4806   -4.3566   -1.8264 C   0  0  0  0  0  0  0  0  0  0  0  0
    4.7428   -3.9282   -2.5934 C   0  0  0  0  0  0  0  0  0  0  0  0
    4.7024   -2.4997   -3.1219 C   0  0  0  0  0  0  0  0  0  0  0  0
    2.7808   -2.1410    4.3045 C   0  0  0  0  0  0  0  0  0  0  0  0
    4.8063   -4.8601    2.9232 N   0  0  0  0  0  0  0  0  0  0  0  0
    3.4851   -4.0988    0.5427 N   0  0  0  0  0  0  0  0  0  0  0  0
    3.7051   -3.2293    4.0503 N   0  0  0  0  0  0  0  0  0  0  0  0
    3.3286   -3.3764    1.6975 N   0  0  0  0  0  0  0  0  0  0  0  0
    4.7462   -1.4898   -2.0873 O   0  0  0  0  0  0  0  0  0  0  0  0
    1.4495    2.4033   -1.0066 Br  0  0  0  0  0  0  0  0  0  0  0  0
    6.8151   -6.3121    6.8718 H   0  0  0  0  0  0  0  0  0  0  0  0
    5.6439   -4.5149    8.0997 H   0  0  0  0  0  0  0  0  0  0  0  0
    1.0196   -2.3908    0.4219 H   0  0  0  0  0  0  0  0  0  0  0  0
    6.5030   -6.5978    4.4070 H   0  0  0  0  0  0  0  0  0  0  0  0
    4.1276   -2.9314    6.9177 H   0  0  0  0  0  0  0  0  0  0  0  0
    0.2760   -0.0266    0.2751 H   0  0  0  0  0  0  0  0  0  0  0  0
    3.7730    0.8689   -2.0996 H   0  0  0  0  0  0  0  0  0  0  0  0
    3.5795   -5.3991   -1.5146 H   0  0  0  0  0  0  0  0  0  0  0  0
    2.6079   -4.2787   -2.4884 H   0  0  0  0  0  0  0  0  0  0  0  0
    5.6205   -4.0470   -1.9492 H   0  0  0  0  0  0  0  0  0  0  0  0
    4.8791   -4.5935   -3.4555 H   0  0  0  0  0  0  0  0  0  0  0  0
    5.5868   -2.2974   -3.7307 H   0  0  0  0  0  0  0  0  0  0  0  0
    3.8119   -2.3328   -3.7419 H   0  0  0  0  0  0  0  0  0  0  0  0
    3.2800   -1.1646    4.2839 H   0  0  0  0  0  0  0  0  0  0  0  0
    1.9852   -2.1529    3.5558 H   0  0  0  0  0  0  0  0  0  0  0  0
    2.3223   -2.2781    5.2871 H   0  0  0  0  0  0  0  0  0  0  0  0
    3.2941   -2.3607    1.6069 H   0  0  0  0  0  0  0  0  0  0  0  0
  1  2  1  0  0  0  0
  1  4  2  0  0  0  0
  1 25  1  0  0  0  0
  2  5  2  0  0  0  0
  2 26  1  0  0  0  0
  3  6  2  0  0  0  0
  3  8  1  0  0  0  0
  3 27  1  0  0  0  0
  4  9  1  0  0  0  0
  4 28  1  0  0  0  0
  5 10  1  0  0  0  0
  5 29  1  0  0  0  0
  6 12  1  0  0  0  0
  6 30  1  0  0  0  0
  7 11  1  0  0  0  0
  7 12  2  0  0  0  0
  7 31  1  0  0  0  0
  8 11  2  0  0  0  0
  8 14  1  0  0  0  0
  9 10  2  0  0  0  0
  9 19  1  0  0  0  0
 10 21  1  0  0  0  0
 11 23  1  0  0  0  0
 12 24  1  0  0  0  0
 13 19  2  0  0  0  0
 13 21  1  0  0  0  0
 13 22  1  0  0  0  0
 14 15  1  0  0  0  0
 14 20  2  0  0  0  0
 15 16  1  0  0  0  0
 15 32  1  0  0  0  0
 15 33  1  0  0  0  0
 16 17  1  0  0  0  0
 16 34  1  0  0  0  0
 16 35  1  0  0  0  0
 17 23  1  0  0  0  0
 17 36  1  0  0  0  0
 17 37  1  0  0  0  0
 18 21  1  0  0  0  0
 18 38  1  0  0  0  0
 18 39  1  0  0  0  0
 18 40  1  0  0  0  0
 20 22  1  0  0  0  0
 22 41  1  0  0  0  0
M  END
$$$$
