39
0 1 C16H15NO6S
C                    -0.918930683450    -0.922423067828    -1.359487809048
C                    -0.877766776706     0.469963540238    -1.374110912168
C                     5.970576644945     0.150581476420    -1.326952665902
C                    -0.079965084868    -1.633787244833    -0.504547821589
C                     4.740781105426     0.010229725747    -1.966798712221
C                     5.332545655291    -1.486863250789     0.300962008377
C                    -0.015544003760     1.180145006176    -0.525894010043
C                     6.297523302281    -0.602488188453    -0.188144729128
C                     0.820365061961    -0.957351107988     0.325233176237
C                     0.830498006487     0.450522903044     0.335506892485
C                     3.780148262632    -0.886926331504    -1.480454242713
C                     4.085301465645    -1.622815311005    -0.321412776072
C                    -0.058065832145     2.684448434966    -0.640299990406
C                     2.150433232231    -0.911813429887     2.353515993712
C                     2.652509230027     0.461886719055     1.937279286496
C                     7.653042541546    -0.479415782951     0.468318206579
N                     1.703245844273    -1.680379133897     1.183327118081
O                    -0.762271760227     3.242157928317    -1.459048050856
O                     2.199568151175    -3.510840888858    -0.538948097441
O                     3.568176329449    -3.330826517771     1.603727280463
O                     1.634018818072     1.166853672759     1.199162814903
O                     2.570938092324    -1.057772183530    -2.078455124839
O                     0.722124471698     3.413028233622     0.189937607976
S                     2.885655437863    -2.711947202803     0.465988641495
H                    -1.606216233723    -1.456281200184    -2.008696640673
H                    -1.517916660704     1.049001854446    -2.031262942438
H                     6.692427161600     0.858959379422    -1.726945797084
H                    -0.084506436064    -2.716852479751    -0.485924424513
H                     4.517540094828     0.599998981189    -2.853955299313
H                     5.530841998318    -2.086381744362     1.184046010613
H                     2.927411345737    -1.469872677623     2.875786298760
H                     1.292159423053    -0.813764380607     3.025367217493
H                     2.869240641252     1.089305244960     2.804323393008
H                     3.546380816626     0.387775895209     1.312857110127
H                     7.986290694025     0.562491794806     0.502257791335
H                     7.636607715578    -0.863251895618     1.491829907001
H                     8.409497114906    -1.047898260665    -0.085037724692
H                     2.451366204654    -0.395604373527    -2.778137116948
H                     1.228296618611     2.813821817017     0.776622718091
