25
0 1 C10ClFH10O3
C                    -0.672874477878    -2.051742545000    -1.940039162612
C                    -0.689366174521    -2.886055675755    -0.821248480980
C                    -2.069407840278    -1.266205900297     0.343845868058
C                    -1.345159896852    -0.825133345512    -1.949543285860
C                    -2.048197036522    -0.467711303820    -0.791611980089
C                    -1.384087273158    -2.481650651289     0.318823379686
C                     0.889266406048     3.619798635288    -1.536586456038
C                     0.327137150549     2.619523783533    -0.530024645639
C                     0.334831847576     1.634443260529    -2.591033909114
C                    -1.080884993060     1.314466263940    -3.069473148441
O                     0.553266114023     3.029537610172    -2.801681168861
O                     0.523391277009     1.372362029112    -1.207960740579
O                    -1.333289054989    -0.100301730207    -3.113819182965
F                    -2.736640452990     0.705735414266    -0.755057529648
Cl                   -1.406725924031    -3.509182198766     1.742249348012
H                    -0.130045966285    -2.339219985610    -2.835360805896
H                    -0.160866834566    -3.833419098360    -0.832977889650
H                    -2.623654535547    -0.939087159823     1.217120258335
H                     0.426838804382     4.608365197835    -1.483150591105
H                     1.978289885310     3.714219941950    -1.444622516048
H                     0.873943354940     2.578898473354     0.413717119887
H                    -0.738493393937     2.792230259674    -0.331957939063
H                     1.073921671855     1.036108917384    -3.137083628224
H                    -1.185182402798     1.648305962455    -4.103567218303
H                    -1.814296031479     1.836586356745    -2.452450832724
