25
0 1 C10ClFH10O3
C                    -3.320010490134     1.079925028557    -3.868087958105
C                    -4.576514937002     0.729597914442    -4.379628729531
C                    -4.065022087864    -1.616846895875    -4.034652396073
C                    -2.424225827375     0.096467640228    -3.434803214369
C                    -2.828959089881    -1.246597371050    -3.532833647195
C                    -4.940508793431    -0.610925511611    -4.459445554820
C                     1.492599769883    -0.088346886753    -0.899197379508
C                     1.692533487743    -0.419231326343    -2.378656361599
C                     0.683471643113     1.629914884758    -2.226447114912
C                    -0.721680629604     1.657406984963    -2.822189627456
O                     0.648014224656     1.072537069100    -0.919614496825
O                     1.591604973589     0.872231720668    -3.002638098484
O                    -1.185739721653     0.314398161721    -2.921856403219
F                    -1.969806237980    -2.207336472627    -3.119602904665
Cl                   -6.512732074876    -1.058209008734    -5.099121126701
H                    -3.051024893146     2.128324642295    -3.812103591601
H                    -5.262100235605     1.501942271826    -4.711933554839
H                    -4.330308693815    -2.667207709148    -4.089537222293
H                     0.980983114445    -0.880022352232    -0.346373842845
H                     2.440013855914     0.157311171177    -0.403825855884
H                     2.681561979661    -0.822211340082    -2.606189009959
H                     0.912846473762    -1.086900907137    -2.756625587074
H                     1.062058058553     2.660716884983    -2.185222305163
H                    -0.681462415453     2.124230054251    -3.814564805391
H                    -1.375960180140     2.246334716345    -2.166496168331
