
  -OEChem-05262117483D

 39 41  0     1  0  0  0  0  0999 V2000
   -0.9189   -0.9224   -1.3595 C   0  0  0  0  0  0  0  0  0  0  0  0
   -0.8778    0.4700   -1.3741 C   0  0  0  0  0  0  0  0  0  0  0  0
    5.9706    0.1506   -1.3270 C   0  0  0  0  0  0  0  0  0  0  0  0
   -0.0800   -1.6338   -0.5045 C   0  0  0  0  0  0  0  0  0  0  0  0
    4.7408    0.0102   -1.9668 C   0  0  0  0  0  0  0  0  0  0  0  0
    5.3325   -1.4869    0.3010 C   0  0  0  0  0  0  0  0  0  0  0  0
   -0.0155    1.1801   -0.5259 C   0  0  0  0  0  0  0  0  0  0  0  0
    6.2975   -0.6025   -0.1881 C   0  0  0  0  0  0  0  0  0  0  0  0
    0.8204   -0.9574    0.3252 C   0  0  0  0  0  0  0  0  0  0  0  0
    0.8305    0.4505    0.3355 C   0  0  0  0  0  0  0  0  0  0  0  0
    3.7801   -0.8869   -1.4805 C   0  0  0  0  0  0  0  0  0  0  0  0
    4.0853   -1.6228   -0.3214 C   0  0  0  0  0  0  0  0  0  0  0  0
   -0.0581    2.6844   -0.6403 C   0  0  0  0  0  0  0  0  0  0  0  0
    2.1504   -0.9118    2.3535 C   0  0  0  0  0  0  0  0  0  0  0  0
    2.6525    0.4619    1.9373 C   0  0  0  0  0  0  0  0  0  0  0  0
    7.6530   -0.4794    0.4683 C   0  0  0  0  0  0  0  0  0  0  0  0
    1.7032   -1.6804    1.1833 N   0  0  2  0  0  0  0  0  0  0  0  0
   -0.7623    3.2422   -1.4590 O   0  0  0  0  0  0  0  0  0  0  0  0
    2.1996   -3.5108   -0.5389 O   0  0  0  0  0  0  0  0  0  0  0  0
    3.5682   -3.3308    1.6037 O   0  0  0  0  0  0  0  0  0  0  0  0
    1.6340    1.1669    1.1992 O   0  0  0  0  0  0  0  0  0  0  0  0
    2.5709   -1.0578   -2.0785 O   0  0  0  0  0  0  0  0  0  0  0  0
    0.7221    3.4130    0.1899 O   0  0  0  0  0  0  0  0  0  0  0  0
    2.8857   -2.7119    0.4660 S   0  0  0  0  0  0  0  0  0  0  0  0
   -1.6062   -1.4563   -2.0087 H   0  0  0  0  0  0  0  0  0  0  0  0
   -1.5179    1.0490   -2.0313 H   0  0  0  0  0  0  0  0  0  0  0  0
    6.6924    0.8590   -1.7269 H   0  0  0  0  0  0  0  0  0  0  0  0
   -0.0845   -2.7169   -0.4859 H   0  0  0  0  0  0  0  0  0  0  0  0
    4.5175    0.6000   -2.8540 H   0  0  0  0  0  0  0  0  0  0  0  0
    5.5308   -2.0864    1.1840 H   0  0  0  0  0  0  0  0  0  0  0  0
    2.9274   -1.4699    2.8758 H   0  0  0  0  0  0  0  0  0  0  0  0
    1.2922   -0.8138    3.0254 H   0  0  0  0  0  0  0  0  0  0  0  0
    2.8692    1.0893    2.8043 H   0  0  0  0  0  0  0  0  0  0  0  0
    3.5464    0.3878    1.3129 H   0  0  0  0  0  0  0  0  0  0  0  0
    7.9863    0.5625    0.5023 H   0  0  0  0  0  0  0  0  0  0  0  0
    7.6366   -0.8633    1.4918 H   0  0  0  0  0  0  0  0  0  0  0  0
    8.4095   -1.0479   -0.0850 H   0  0  0  0  0  0  0  0  0  0  0  0
    2.4514   -0.3956   -2.7781 H   0  0  0  0  0  0  0  0  0  0  0  0
    1.2283    2.8138    0.7766 H   0  0  0  0  0  0  0  0  0  0  0  0
  1  2  1  0  0  0  0
  1  4  2  0  0  0  0
  1 25  1  0  0  0  0
  2  7  2  0  0  0  0
  2 26  1  0  0  0  0
  3  5  2  0  0  0  0
  3  8  1  0  0  0  0
  3 27  1  0  0  0  0
  4  9  1  0  0  0  0
  4 28  1  0  0  0  0
  5 11  1  0  0  0  0
  5 29  1  0  0  0  0
  6  8  2  0  0  0  0
  6 12  1  0  0  0  0
  6 30  1  0  0  0  0
  7 10  1  0  0  0  0
  7 13  1  0  0  0  0
  8 16  1  0  0  0  0
  9 10  2  0  0  0  0
  9 17  1  0  0  0  0
 10 21  1  0  0  0  0
 11 12  2  0  0  0  0
 11 22  1  0  0  0  0
 12 24  1  0  0  0  0
 13 18  2  0  0  0  0
 13 23  1  0  0  0  0
 14 15  1  0  0  0  0
 14 17  1  0  0  0  0
 14 31  1  0  0  0  0
 14 32  1  0  0  0  0
 15 21  1  0  0  0  0
 15 33  1  0  0  0  0
 15 34  1  0  0  0  0
 16 35  1  0  0  0  0
 16 36  1  0  0  0  0
 16 37  1  0  0  0  0
 17 24  1  0  0  0  0
 19 24  2  0  0  0  0
 20 24  2  0  0  0  0
 22 38  1  0  0  0  0
 23 39  1  0  0  0  0
M  END
$$$$
