15
0 1 C6ClF3H3NS
C                     0.240729438976    -0.383889929989     0.930545101912
C                     1.638363431764    -0.625653481778     2.887842437315
C                    -0.638649449643    -1.288785621996     1.523770244380
C                     1.399121472885    -0.056486243462     1.641764152066
C                     0.673096938686    -1.523151720889     3.374371901883
C                    -0.436471189602    -3.321160635634     5.241099684538
N                    -0.436678616485    -1.854071149676     2.722936091468
F                    -0.544815365640    -4.301395673424     4.331133818673
F                    -1.602957856798    -2.659576354633     5.288333386183
F                    -0.238925389197    -3.898733277138     6.450334784384
S                     1.013600068389    -2.236082034891     4.982683026472
Cl                    2.551107948953     1.069212386271     0.967246727119
H                     0.032771362562     0.046951703109    -0.042548652377
H                     2.532046917032    -0.383978196748     3.454402461848
H                    -1.554104867597    -1.576134372000     1.010756905071
