
  -OEChem-05262117483D

 55 56  0     1  0  0  0  0  0999 V2000
   -2.7151    0.0041    1.9021 C   0  0  0  0  0  0  0  0  0  0  0  0
   -2.9104    1.0660    0.9991 C   0  0  0  0  0  0  0  0  0  0  0  0
   -1.5458   -0.7397    1.8367 C   0  0  0  0  0  0  0  0  0  0  0  0
   -1.9413    1.3892    0.0545 C   0  0  0  0  0  0  0  0  0  0  0  0
   -0.5552   -0.4387    0.8810 C   0  0  0  0  0  0  0  0  0  0  0  0
   -0.7570    0.6423    0.0001 C   0  0  0  0  0  0  0  0  0  0  0  0
    0.6365   -1.2948    0.7431 C   0  0  0  0  0  0  0  0  0  0  0  0
    1.5117    0.5197   -0.7038 C   0  0  1  0  0  0  0  0  0  0  0  0
    1.5188   -1.0136   -0.4855 C   0  0  0  0  0  0  0  0  0  0  0  0
    3.3836    4.6177   -3.0952 C   0  0  0  0  0  0  0  0  0  0  0  0
   -0.2533   -5.6644   -2.6446 C   0  0  0  0  0  0  0  0  0  0  0  0
    6.1132   -0.8550    2.4017 C   0  0  0  0  0  0  0  0  0  0  0  0
    2.3612    1.0404   -1.8574 C   0  0  0  0  0  0  0  0  0  0  0  0
    0.8703   -1.7224   -1.7088 C   0  0  0  0  0  0  0  0  0  0  0  0
    2.9400   -1.5642   -0.2620 C   0  0  0  0  0  0  0  0  0  0  0  0
    3.2962    3.0883   -3.0566 C   0  0  0  0  0  0  0  0  0  0  0  0
    2.4368    2.5713   -1.8973 C   0  0  0  0  0  0  0  0  0  0  0  0
    0.6966   -3.2311   -1.5287 C   0  0  0  0  0  0  0  0  0  0  0  0
    3.7123   -0.8904    0.8733 C   0  0  0  0  0  0  0  0  0  0  0  0
    0.8852   -2.2176    1.5158 O   0  0  0  0  0  0  0  0  0  0  0  0
   -1.5385   -3.3574   -2.9888 O   0  0  0  0  0  0  0  0  0  0  0  0
    0.7069   -3.6955   -4.1601 O   0  0  0  0  0  0  0  0  0  0  0  0
    5.3202   -3.0259    1.0814 O   0  0  0  0  0  0  0  0  0  0  0  0
    6.1203   -1.0018   -0.2577 O   0  0  0  0  0  0  0  0  0  0  0  0
    0.1649    0.9953   -0.9349 O   0  0  0  0  0  0  0  0  0  0  0  0
   -0.1653   -3.8920   -2.9886 S   0  0  0  0  0  0  0  0  0  0  0  0
    5.4024   -1.5671    0.8997 S   0  0  0  0  0  0  0  0  0  0  0  0
   -3.4792   -0.2348    2.6359 H   0  0  0  0  0  0  0  0  0  0  0  0
   -3.8272    1.6485    1.0404 H   0  0  0  0  0  0  0  0  0  0  0  0
   -1.3697   -1.5792    2.5026 H   0  0  0  0  0  0  0  0  0  0  0  0
   -2.0750    2.2125   -0.6406 H   0  0  0  0  0  0  0  0  0  0  0  0
    1.8453    0.9967    0.2302 H   0  0  0  0  0  0  0  0  0  0  0  0
    2.3901    5.0676   -3.2050 H   0  0  0  0  0  0  0  0  0  0  0  0
    3.9997    4.9606   -3.9330 H   0  0  0  0  0  0  0  0  0  0  0  0
    3.8258    5.0122   -2.1729 H   0  0  0  0  0  0  0  0  0  0  0  0
   -0.7725   -6.1089   -3.4958 H   0  0  0  0  0  0  0  0  0  0  0  0
    0.7585   -6.0651   -2.5664 H   0  0  0  0  0  0  0  0  0  0  0  0
   -0.8229   -5.8235   -1.7278 H   0  0  0  0  0  0  0  0  0  0  0  0
    7.1469   -1.2040    2.4387 H   0  0  0  0  0  0  0  0  0  0  0  0
    6.0851    0.2336    2.3317 H   0  0  0  0  0  0  0  0  0  0  0  0
    5.5579   -1.2197    3.2671 H   0  0  0  0  0  0  0  0  0  0  0  0
    3.3729    0.6325   -1.7659 H   0  0  0  0  0  0  0  0  0  0  0  0
    1.9523    0.6664   -2.8018 H   0  0  0  0  0  0  0  0  0  0  0  0
    1.4965   -1.5459   -2.5870 H   0  0  0  0  0  0  0  0  0  0  0  0
   -0.1049   -1.2742   -1.9129 H   0  0  0  0  0  0  0  0  0  0  0  0
    3.5056   -1.4815   -1.1938 H   0  0  0  0  0  0  0  0  0  0  0  0
    2.8678   -2.6237   -0.0148 H   0  0  0  0  0  0  0  0  0  0  0  0
    4.3056    2.6638   -2.9792 H   0  0  0  0  0  0  0  0  0  0  0  0
    2.8816    2.7207   -4.0041 H   0  0  0  0  0  0  0  0  0  0  0  0
    2.8505    2.9385   -0.9472 H   0  0  0  0  0  0  0  0  0  0  0  0
    1.4252    2.9843   -1.9749 H   0  0  0  0  0  0  0  0  0  0  0  0
    1.6506   -3.7592   -1.4689 H   0  0  0  0  0  0  0  0  0  0  0  0
    0.0841   -3.4829   -0.6603 H   0  0  0  0  0  0  0  0  0  0  0  0
    3.8358    0.1863    0.7386 H   0  0  0  0  0  0  0  0  0  0  0  0
    3.2544   -1.1021    1.8423 H   0  0  0  0  0  0  0  0  0  0  0  0
  1  2  1  0  0  0  0
  1  3  2  0  0  0  0
  1 28  1  0  0  0  0
  2  4  2  0  0  0  0
  2 29  1  0  0  0  0
  3  5  1  0  0  0  0
  3 30  1  0  0  0  0
  4  6  1  0  0  0  0
  4 31  1  0  0  0  0
  5  6  2  0  0  0  0
  5  7  1  0  0  0  0
  6 25  1  0  0  0  0
  7  9  1  0  0  0  0
  7 20  2  0  0  0  0
  8  9  1  0  0  0  0
  8 13  1  0  0  0  0
  8 25  1  0  0  0  0
  8 32  1  0  0  0  0
  9 14  1  0  0  0  0
  9 15  1  0  0  0  0
 10 16  1  0  0  0  0
 10 33  1  0  0  0  0
 10 34  1  0  0  0  0
 10 35  1  0  0  0  0
 11 26  1  0  0  0  0
 11 36  1  0  0  0  0
 11 37  1  0  0  0  0
 11 38  1  0  0  0  0
 12 27  1  0  0  0  0
 12 39  1  0  0  0  0
 12 40  1  0  0  0  0
 12 41  1  0  0  0  0
 13 17  1  0  0  0  0
 13 42  1  0  0  0  0
 13 43  1  0  0  0  0
 14 18  1  0  0  0  0
 14 44  1  0  0  0  0
 14 45  1  0  0  0  0
 15 19  1  0  0  0  0
 15 46  1  0  0  0  0
 15 47  1  0  0  0  0
 16 17  1  0  0  0  0
 16 48  1  0  0  0  0
 16 49  1  0  0  0  0
 17 50  1  0  0  0  0
 17 51  1  0  0  0  0
 18 26  1  0  0  0  0
 18 52  1  0  0  0  0
 18 53  1  0  0  0  0
 19 27  1  0  0  0  0
 19 54  1  0  0  0  0
 19 55  1  0  0  0  0
 21 26  2  0  0  0  0
 22 26  2  0  0  0  0
 23 27  2  0  0  0  0
 24 27  2  0  0  0  0
M  END
$$$$
