40
0 1 C17H19N3O
C                     0.046203303655    -1.357799410948    -1.972884726403
C                    -0.960575654613    -0.883779224672    -2.825326071367
C                    -1.774978291729     0.595726012798    -1.097307462740
C                    -1.035489298496     4.367775985528     3.916397820984
C                    -0.936094477485     2.217823928843     4.919078153586
C                    -1.049195660307     3.609076361977     5.100310722362
C                     0.141149638779    -0.844832972616    -0.681259899335
C                    -0.769394014515     0.128671809488    -0.255280155945
C                    -1.880614731481     0.090056843533    -2.404964073246
C                    -0.826829797689     2.478640066885     2.661002799430
C                    -1.163069457733     4.179078954146     6.465001179491
C                     1.114695511494    -1.175255493418     0.429996346589
C                    -0.473763350117     0.519913725467     1.177390093742
C                     1.001517724978     0.041807312147     1.388073326956
C                    -2.980519104923     0.565336254607    -3.327409377100
C                    -1.298689173494     5.685867589621     6.609928873674
C                     2.022986467986     1.126470477030     1.032179522590
N                    -0.926939436568     3.831680417841     2.705695609072
N                    -0.820673926823     1.641442433489     3.728308941219
N                    -0.731481578933     1.929070335055     1.426469213546
O                    -1.148487254720     3.451672685331     7.455174466928
H                     0.750667173878    -2.107397027723    -2.327091069313
H                    -1.028427343951    -1.273119272464    -3.839065503866
H                    -2.478392671248     1.350302139355    -0.748886333810
H                    -1.112805967844     5.453828177087     3.943558846759
H                    -0.936526000333     1.565347205687     5.789917529636
H                     0.806104984991    -2.097973900339     0.938994760191
H                     2.138051559731    -1.332315368922     0.073209672098
H                    -1.118766794573    -0.044760560200     1.858761517174
H                     1.144714512256    -0.253924753188     2.430581584348
H                    -3.905798745420     0.001120622704    -3.158175113102
H                    -3.210050159269     1.623066357966    -3.165223192621
H                    -2.705315077740     0.436353939807    -4.378259144825
H                    -2.188263354299     6.051891338079     6.085511072253
H                    -0.430946018594     6.200148710524     6.182146022440
H                    -1.377144087146     5.932928935553     7.669257377965
H                     1.915727946621     1.450437633832    -0.009783428271
H                     3.040481767488     0.742551791551     1.158451449926
H                     1.917569520357     2.006171798615     1.673832624415
H                    -0.613303041317     2.589014050284     0.667478833577
