
  -OEChem-05262117483D

 55 56  0     1  0  0  0  0  0999 V2000
    0.0862    0.8782   -3.0769 C   0  0  0  0  0  0  0  0  0  0  0  0
   -1.2491    1.0097   -2.6544 C   0  0  0  0  0  0  0  0  0  0  0  0
    1.0182    0.3064   -2.2220 C   0  0  0  0  0  0  0  0  0  0  0  0
   -1.6444    0.5868   -1.3881 C   0  0  0  0  0  0  0  0  0  0  0  0
    0.6388   -0.1370   -0.9407 C   0  0  0  0  0  0  0  0  0  0  0  0
   -0.6987    0.0180   -0.5264 C   0  0  0  0  0  0  0  0  0  0  0  0
    1.6115   -0.8045   -0.0604 C   0  0  0  0  0  0  0  0  0  0  0  0
   -0.1232   -0.5176    1.7287 C   0  0  1  0  0  0  0  0  0  0  0  0
    1.0350   -1.4163    1.2300 C   0  0  0  0  0  0  0  0  0  0  0  0
   -1.6147    4.0038    3.5826 C   0  0  0  0  0  0  0  0  0  0  0  0
    4.4195   -2.0361    4.5867 C   0  0  0  0  0  0  0  0  0  0  0  0
   -0.1394   -6.0819    1.0057 C   0  0  0  0  0  0  0  0  0  0  0  0
    0.3023    0.8627    2.2413 C   0  0  0  0  0  0  0  0  0  0  0  0
    2.1652   -1.5236    2.2711 C   0  0  0  0  0  0  0  0  0  0  0  0
    0.4512   -2.8117    0.8627 C   0  0  0  0  0  0  0  0  0  0  0  0
   -0.4371    3.0976    3.2081 C   0  0  0  0  0  0  0  0  0  0  0  0
   -0.8848    1.7582    2.6117 C   0  0  0  0  0  0  0  0  0  0  0  0
    1.7475   -2.2110    3.5731 C   0  0  0  0  0  0  0  0  0  0  0  0
    1.5011   -3.8157    0.3927 C   0  0  0  0  0  0  0  0  0  0  0  0
    2.7977   -0.9334   -0.3506 O   0  0  0  0  0  0  0  0  0  0  0  0
    2.5857   -0.1617    5.0444 O   0  0  0  0  0  0  0  0  0  0  0  0
    2.3133   -2.4459    6.1645 O   0  0  0  0  0  0  0  0  0  0  0  0
   -0.2233   -4.8690   -1.3575 O   0  0  0  0  0  0  0  0  0  0  0  0
    1.8717   -6.1987   -0.7251 O   0  0  0  0  0  0  0  0  0  0  0  0
   -1.1331   -0.3939    0.6968 O   0  0  0  0  0  0  0  0  0  0  0  0
    2.7083   -1.6309    5.0049 S   0  0  0  0  0  0  0  0  0  0  0  0
    0.7648   -5.3023   -0.3555 S   0  0  0  0  0  0  0  0  0  0  0  0
    0.3810    1.2148   -4.0662 H   0  0  0  0  0  0  0  0  0  0  0  0
   -1.9852    1.4529   -3.3200 H   0  0  0  0  0  0  0  0  0  0  0  0
    2.0541    0.1742   -2.5193 H   0  0  0  0  0  0  0  0  0  0  0  0
   -2.6696    0.6919   -1.0463 H   0  0  0  0  0  0  0  0  0  0  0  0
   -0.6641   -1.0340    2.5273 H   0  0  0  0  0  0  0  0  0  0  0  0
   -2.2327    4.2321    2.7064 H   0  0  0  0  0  0  0  0  0  0  0  0
   -1.2684    4.9537    4.0034 H   0  0  0  0  0  0  0  0  0  0  0  0
   -2.2602    3.5250    4.3279 H   0  0  0  0  0  0  0  0  0  0  0  0
    5.0184   -1.7055    5.4373 H   0  0  0  0  0  0  0  0  0  0  0  0
    4.5086   -3.1161    4.4586 H   0  0  0  0  0  0  0  0  0  0  0  0
    4.7125   -1.4963    3.6856 H   0  0  0  0  0  0  0  0  0  0  0  0
   -0.5326   -7.0154    0.5987 H   0  0  0  0  0  0  0  0  0  0  0  0
    0.5505   -6.2917    1.8250 H   0  0  0  0  0  0  0  0  0  0  0  0
   -0.9596   -5.4357    1.3202 H   0  0  0  0  0  0  0  0  0  0  0  0
    0.9283    0.7221    3.1287 H   0  0  0  0  0  0  0  0  0  0  0  0
    0.9273    1.3680    1.4950 H   0  0  0  0  0  0  0  0  0  0  0  0
    2.5299   -0.5185    2.4892 H   0  0  0  0  0  0  0  0  0  0  0  0
    3.0044   -2.0524    1.8165 H   0  0  0  0  0  0  0  0  0  0  0  0
   -0.3014   -2.6951    0.0796 H   0  0  0  0  0  0  0  0  0  0  0  0
   -0.0722   -3.2008    1.7435 H   0  0  0  0  0  0  0  0  0  0  0  0
    0.1819    2.9113    4.0948 H   0  0  0  0  0  0  0  0  0  0  0  0
    0.2087    3.6153    2.4867 H   0  0  0  0  0  0  0  0  0  0  0  0
   -1.5247    1.2332    3.3342 H   0  0  0  0  0  0  0  0  0  0  0  0
   -1.5048    1.9382    1.7267 H   0  0  0  0  0  0  0  0  0  0  0  0
    0.7264   -1.9740    3.8836 H   0  0  0  0  0  0  0  0  0  0  0  0
    1.8460   -3.2994    3.5508 H   0  0  0  0  0  0  0  0  0  0  0  0
    2.1284   -3.4169   -0.4096 H   0  0  0  0  0  0  0  0  0  0  0  0
    2.1594   -4.1747    1.1877 H   0  0  0  0  0  0  0  0  0  0  0  0
  1  2  1  0  0  0  0
  1  3  2  0  0  0  0
  1 28  1  0  0  0  0
  2  4  2  0  0  0  0
  2 29  1  0  0  0  0
  3  5  1  0  0  0  0
  3 30  1  0  0  0  0
  4  6  1  0  0  0  0
  4 31  1  0  0  0  0
  5  6  2  0  0  0  0
  5  7  1  0  0  0  0
  6 25  1  0  0  0  0
  7  9  1  0  0  0  0
  7 20  2  0  0  0  0
  8  9  1  0  0  0  0
  8 13  1  0  0  0  0
  8 25  1  0  0  0  0
  8 32  1  0  0  0  0
  9 14  1  0  0  0  0
  9 15  1  0  0  0  0
 10 16  1  0  0  0  0
 10 33  1  0  0  0  0
 10 34  1  0  0  0  0
 10 35  1  0  0  0  0
 11 26  1  0  0  0  0
 11 36  1  0  0  0  0
 11 37  1  0  0  0  0
 11 38  1  0  0  0  0
 12 27  1  0  0  0  0
 12 39  1  0  0  0  0
 12 40  1  0  0  0  0
 12 41  1  0  0  0  0
 13 17  1  0  0  0  0
 13 42  1  0  0  0  0
 13 43  1  0  0  0  0
 14 18  1  0  0  0  0
 14 44  1  0  0  0  0
 14 45  1  0  0  0  0
 15 19  1  0  0  0  0
 15 46  1  0  0  0  0
 15 47  1  0  0  0  0
 16 17  1  0  0  0  0
 16 48  1  0  0  0  0
 16 49  1  0  0  0  0
 17 50  1  0  0  0  0
 17 51  1  0  0  0  0
 18 26  1  0  0  0  0
 18 52  1  0  0  0  0
 18 53  1  0  0  0  0
 19 27  1  0  0  0  0
 19 54  1  0  0  0  0
 19 55  1  0  0  0  0
 21 26  2  0  0  0  0
 22 26  2  0  0  0  0
 23 27  2  0  0  0  0
 24 27  2  0  0  0  0
M  END
$$$$
