40
0 1 C17H19N3O
C                    -1.266813591530    -0.867655893577     1.692665760878
C                    -2.248380827656     0.045071446519     2.097376321682
C                    -1.690683653551     1.519985203837     0.265787953732
C                    -1.611434725369     3.390219648071    -3.958334972052
C                    -2.636725233818     1.568438886498    -5.083117442573
C                    -2.476120029756     2.967452920534    -4.977548721628
C                    -0.492611525797    -0.578719675442     0.568914365694
C                    -0.709604752739     0.613575429995    -0.132667822402
C                    -2.472782509089     1.244344674248     1.398435680387
C                    -1.195878746425     1.236065919041    -3.348212047641
C                    -3.202098504371     3.876009672156    -5.897342784156
C                     0.603718028042    -1.390182495023    -0.088713770605
C                     0.194456204552     0.683441353009    -1.351683746967
C                     1.300032431633    -0.357046659254    -1.012172316524
C                    -3.514545976016     2.230408424384     1.877076165807
C                    -2.990642989936     5.374266409922    -5.751294731858
C                     2.045036991307    -0.947054467782    -2.206937245464
N                    -0.975437220858     2.554346862739    -3.138914560205
N                    -2.018039629460     0.703514325219    -4.294559508211
N                    -0.538802965299     0.337167011355    -2.573784076156
O                    -3.956647478845     3.430006715089    -6.758609360341
H                    -1.116445855078    -1.788495552064     2.252219569102
H                    -2.853519834094    -0.176471254489     2.974273628481
H                    -1.847438479560     2.436001957101    -0.299849667296
H                    -1.423006542468     4.448789814960    -3.784180815232
H                    -3.300630967616     1.164091642892    -5.844599723319
H                     1.300502520917    -1.836770573915     0.628119474039
H                     0.178350992485    -2.219164398219    -0.672680507972
H                     0.609744218740     1.677031638239    -1.517141289088
H                     2.019402408947     0.187126660968    -0.388699505238
H                    -3.088254139782     2.929508681402     2.606997963161
H                    -3.911871561922     2.824276644166     1.048540628881
H                    -4.353518602071     1.722396666983     2.362246676840
H                    -1.935016297197     5.636491048363    -5.882173236774
H                    -3.293293190034     5.717316157325    -4.755726376923
H                    -3.586444881455     5.889512691848    -6.505587235305
H                     1.383492880148    -1.533790421243    -2.852316929626
H                     2.849249813221    -1.608754961391    -1.867512266702
H                     2.492080104390    -0.159974795251    -2.823026568841
H                    -0.884308089668    -0.610487739180    -2.673678085906
