
  -OEChem-05262117483D

 35 36  0     0  0  0  0  0  0999 V2000
   -0.4482    3.0282   -1.1500 C   0  0  0  0  0  0  0  0  0  0  0  0
   -2.0994    4.4976   -0.1626 C   0  0  0  0  0  0  0  0  0  0  0  0
   -1.1521    1.9067   -0.6874 C   0  0  0  0  0  0  0  0  0  0  0  0
   -0.9224    4.3149   -0.8986 C   0  0  0  0  0  0  0  0  0  0  0  0
   -2.3235    2.0760    0.0710 C   0  0  0  0  0  0  0  0  0  0  0  0
   -2.7787    3.3826    0.3190 C   0  0  0  0  0  0  0  0  0  0  0  0
   -0.5902    0.5567   -1.0514 C   0  0  0  0  0  0  0  0  0  0  0  0
   -1.9724   -3.2340   -2.7026 C   0  0  0  0  0  0  0  0  0  0  0  0
   -2.1631   -2.9938   -1.1987 C   0  0  0  0  0  0  0  0  0  0  0  0
   -2.2053   -1.9467   -3.5054 C   0  0  0  0  0  0  0  0  0  0  0  0
   -1.2759   -1.8487   -0.6932 C   0  0  0  0  0  0  0  0  0  0  0  0
   -1.3131   -0.8033   -3.0045 C   0  0  0  0  0  0  0  0  0  0  0  0
   -1.5284   -0.5559   -1.4928 C   0  0  0  0  0  0  0  0  0  0  0  0
   -2.6159    0.6076    1.8966 C   0  0  0  0  0  0  0  0  0  0  0  0
    0.6262    0.4056   -1.0846 O   0  0  0  0  0  0  0  0  0  0  0  0
   -0.2849    5.4453   -1.3437 O   0  0  0  0  0  0  0  0  0  0  0  0
   -3.0099    0.9928    0.5684 O   0  0  0  0  0  0  0  0  0  0  0  0
   -4.2359    3.6205    1.2610 Cl  0  0  0  0  0  0  0  0  0  0  0  0
    0.4698    2.8646   -1.7096 H   0  0  0  0  0  0  0  0  0  0  0  0
   -2.4656    5.5005    0.0295 H   0  0  0  0  0  0  0  0  0  0  0  0
   -2.6492   -4.0239   -3.0489 H   0  0  0  0  0  0  0  0  0  0  0  0
   -0.9498   -3.5920   -2.8843 H   0  0  0  0  0  0  0  0  0  0  0  0
   -3.2160   -2.7501   -1.0011 H   0  0  0  0  0  0  0  0  0  0  0  0
   -1.9420   -3.9090   -0.6369 H   0  0  0  0  0  0  0  0  0  0  0  0
   -2.0155   -2.1228   -4.5708 H   0  0  0  0  0  0  0  0  0  0  0  0
   -3.2594   -1.6496   -3.4186 H   0  0  0  0  0  0  0  0  0  0  0  0
   -1.4646   -1.6700    0.3713 H   0  0  0  0  0  0  0  0  0  0  0  0
   -0.2180   -2.1189   -0.7899 H   0  0  0  0  0  0  0  0  0  0  0  0
   -0.2581   -1.0487   -3.1725 H   0  0  0  0  0  0  0  0  0  0  0  0
   -1.5241    0.1150   -3.5661 H   0  0  0  0  0  0  0  0  0  0  0  0
   -2.5625   -0.2428   -1.3359 H   0  0  0  0  0  0  0  0  0  0  0  0
   -3.2120   -0.2714    2.1475 H   0  0  0  0  0  0  0  0  0  0  0  0
   -2.8228    1.4101    2.6127 H   0  0  0  0  0  0  0  0  0  0  0  0
   -1.5497    0.3537    1.9249 H   0  0  0  0  0  0  0  0  0  0  0  0
    0.5173    5.1891   -1.8262 H   0  0  0  0  0  0  0  0  0  0  0  0
  1  3  1  0  0  0  0
  1  4  2  0  0  0  0
  1 19  1  0  0  0  0
  2  4  1  0  0  0  0
  2  6  2  0  0  0  0
  2 20  1  0  0  0  0
  3  5  2  0  0  0  0
  3  7  1  0  0  0  0
  4 16  1  0  0  0  0
  5  6  1  0  0  0  0
  5 17  1  0  0  0  0
  6 18  1  0  0  0  0
  7 13  1  0  0  0  0
  7 15  2  0  0  0  0
  8  9  1  0  0  0  0
  8 10  1  0  0  0  0
  8 21  1  0  0  0  0
  8 22  1  0  0  0  0
  9 11  1  0  0  0  0
  9 23  1  0  0  0  0
  9 24  1  0  0  0  0
 10 12  1  0  0  0  0
 10 25  1  0  0  0  0
 10 26  1  0  0  0  0
 11 13  1  0  0  0  0
 11 27  1  0  0  0  0
 11 28  1  0  0  0  0
 12 13  1  0  0  0  0
 12 29  1  0  0  0  0
 12 30  1  0  0  0  0
 13 31  1  0  0  0  0
 14 17  1  0  0  0  0
 14 32  1  0  0  0  0
 14 33  1  0  0  0  0
 14 34  1  0  0  0  0
 16 35  1  0  0  0  0
M  END
$$$$
