
  -OEChem-05262117483D

 58 62  0     0  0  0  0  0  0999 V2000
    6.1159    1.4367   -1.6667 C   0  0  0  0  0  0  0  0  0  0  0  0
    5.3154    1.8524   -2.7517 C   0  0  0  0  0  0  0  0  0  0  0  0
    5.5577    0.7126   -0.6092 C   0  0  0  0  0  0  0  0  0  0  0  0
    3.2277   -2.4203   -2.7528 C   0  0  0  0  0  0  0  0  0  0  0  0
    0.9996   -3.3515   -2.1864 C   0  0  0  0  0  0  0  0  0  0  0  0
    3.4826   -1.0564    1.4134 C   0  0  0  0  0  0  0  0  0  0  0  0
    3.9466    1.5751   -2.7980 C   0  0  0  0  0  0  0  0  0  0  0  0
    4.5753   -2.2931   -2.4827 C   0  0  0  0  0  0  0  0  0  0  0  0
    0.2036   -4.1146   -1.3604 C   0  0  0  0  0  0  0  0  0  0  0  0
    2.3978   -1.7231    1.9848 C   0  0  0  0  0  0  0  0  0  0  0  0
    4.3663   -3.8221   -0.6005 C   0  0  0  0  0  0  0  0  0  0  0  0
    2.1317   -4.7344   -0.0132 C   0  0  0  0  0  0  0  0  0  0  0  0
    0.9182   -0.9469    0.1894 C   0  0  0  0  0  0  0  0  0  0  0  0
    2.3982   -3.2465   -1.9527 C   0  0  0  0  0  0  0  0  0  0  0  0
    4.1888    0.4230   -0.6307 C   0  0  0  0  0  0  0  0  0  0  0  0
    3.3053   -0.3247    0.2378 C   0  0  0  0  0  0  0  0  0  0  0  0
    2.9788   -3.9563   -0.8513 C   0  0  0  0  0  0  0  0  0  0  0  0
    3.3878    0.8818   -1.7190 C   0  0  0  0  0  0  0  0  0  0  0  0
    2.0105   -0.2692   -0.3576 C   0  0  0  0  0  0  0  0  0  0  0  0
    5.1474   -3.0023   -1.3957 C   0  0  0  0  0  0  0  0  0  0  0  0
    0.7759   -4.7926   -0.2520 C   0  0  0  0  0  0  0  0  0  0  0  0
    1.1332   -1.6798    1.3584 C   0  0  0  0  0  0  0  0  0  0  0  0
    0.6892   -0.1173   -3.5396 C   0  0  0  0  0  0  0  0  0  0  0  0
    7.3413   -2.2083   -1.9428 C   0  0  0  0  0  0  0  0  0  0  0  0
    0.9266    0.8612   -2.3419 C   0  0  0  0  0  0  0  0  0  0  0  0
   -0.9138   -4.4296    2.5953 C   0  0  0  0  0  0  0  0  0  0  0  0
   -1.1678   -4.9013    1.1609 C   0  0  0  0  0  0  0  0  0  0  0  0
    0.2717   -3.4774    2.7072 C   0  0  0  0  0  0  0  0  0  0  0  0
    2.0735    0.4884   -1.5169 N   0  0  0  0  0  0  0  0  0  0  0  0
    1.6325   -0.1565   -4.3780 O   0  5  0  0  0  0  0  0  0  0  0  0
   -0.3939   -0.7591   -3.5156 O   0  0  0  0  0  0  0  0  0  0  0  0
    6.4804   -2.9047   -1.0490 O   0  0  0  0  0  0  0  0  0  0  0  0
   -0.0136   -5.5529    0.6075 O   0  0  0  0  0  0  0  0  0  0  0  0
    0.0363   -2.3650    1.8454 O   0  0  0  0  0  0  0  0  0  0  0  0
    7.1794    1.6664   -1.6647 H   0  0  0  0  0  0  0  0  0  0  0  0
    5.7769    2.3811   -3.5831 H   0  0  0  0  0  0  0  0  0  0  0  0
    6.1815    0.3606    0.2098 H   0  0  0  0  0  0  0  0  0  0  0  0
    2.7807   -1.8356   -3.5545 H   0  0  0  0  0  0  0  0  0  0  0  0
    0.5514   -2.7832   -2.9981 H   0  0  0  0  0  0  0  0  0  0  0  0
    4.4639   -1.1269    1.8764 H   0  0  0  0  0  0  0  0  0  0  0  0
    3.3415    1.8175   -3.6649 H   0  0  0  0  0  0  0  0  0  0  0  0
    5.1684   -1.6108   -3.0802 H   0  0  0  0  0  0  0  0  0  0  0  0
   -0.8638   -4.1824   -1.5491 H   0  0  0  0  0  0  0  0  0  0  0  0
    2.5404   -2.2950    2.8947 H   0  0  0  0  0  0  0  0  0  0  0  0
    4.8264   -4.3377    0.2386 H   0  0  0  0  0  0  0  0  0  0  0  0
    2.5461   -5.2607    0.8431 H   0  0  0  0  0  0  0  0  0  0  0  0
   -0.0444   -0.9871   -0.3079 H   0  0  0  0  0  0  0  0  0  0  0  0
    8.3457   -2.3015   -1.5216 H   0  0  0  0  0  0  0  0  0  0  0  0
    7.0762   -1.1485   -2.0185 H   0  0  0  0  0  0  0  0  0  0  0  0
    7.3259   -2.6591   -2.9441 H   0  0  0  0  0  0  0  0  0  0  0  0
    1.1134    1.8682   -2.7302 H   0  0  0  0  0  0  0  0  0  0  0  0
    0.0469    0.8967   -1.6960 H   0  0  0  0  0  0  0  0  0  0  0  0
   -1.8255   -3.9408    2.9635 H   0  0  0  0  0  0  0  0  0  0  0  0
   -0.7180   -5.2942    3.2416 H   0  0  0  0  0  0  0  0  0  0  0  0
   -1.9814   -5.6351    1.1485 H   0  0  0  0  0  0  0  0  0  0  0  0
   -1.4609   -4.0497    0.5440 H   0  0  0  0  0  0  0  0  0  0  0  0
    1.1864   -3.9957    2.4079 H   0  0  0  0  0  0  0  0  0  0  0  0
    0.3930   -3.1338    3.7451 H   0  0  0  0  0  0  0  0  0  0  0  0
  1  2  1  0  0  0  0
  1  3  2  0  0  0  0
  1 35  1  0  0  0  0
  2  7  2  0  0  0  0
  2 36  1  0  0  0  0
  3 15  1  0  0  0  0
  3 37  1  0  0  0  0
  4  8  2  0  0  0  0
  4 14  1  0  0  0  0
  4 38  1  0  0  0  0
  5  9  2  0  0  0  0
  5 14  1  0  0  0  0
  5 39  1  0  0  0  0
  6 10  2  0  0  0  0
  6 16  1  0  0  0  0
  6 40  1  0  0  0  0
  7 18  1  0  0  0  0
  7 41  1  0  0  0  0
  8 20  1  0  0  0  0
  8 42  1  0  0  0  0
  9 21  1  0  0  0  0
  9 43  1  0  0  0  0
 10 22  1  0  0  0  0
 10 44  1  0  0  0  0
 11 17  1  0  0  0  0
 11 20  2  0  0  0  0
 11 45  1  0  0  0  0
 12 17  1  0  0  0  0
 12 21  2  0  0  0  0
 12 46  1  0  0  0  0
 13 19  1  0  0  0  0
 13 22  2  0  0  0  0
 13 47  1  0  0  0  0
 14 17  2  0  0  0  0
 15 16  1  0  0  0  0
 15 18  2  0  0  0  0
 16 19  2  0  0  0  0
 18 29  1  0  0  0  0
 19 29  1  0  0  0  0
 20 32  1  0  0  0  0
 21 33  1  0  0  0  0
 22 34  1  0  0  0  0
 23 25  1  0  0  0  0
 23 30  1  0  0  0  0
 23 31  2  0  0  0  0
 24 32  1  0  0  0  0
 24 48  1  0  0  0  0
 24 49  1  0  0  0  0
 24 50  1  0  0  0  0
 25 29  1  0  0  0  0
 25 51  1  0  0  0  0
 25 52  1  0  0  0  0
 26 27  1  0  0  0  0
 26 28  1  0  0  0  0
 26 53  1  0  0  0  0
 26 54  1  0  0  0  0
 27 33  1  0  0  0  0
 27 55  1  0  0  0  0
 27 56  1  0  0  0  0
 28 34  1  0  0  0  0
 28 57  1  0  0  0  0
 28 58  1  0  0  0  0
M  CHG  1  30  -1
M  END
$$$$
