58
-1 1 C28H24NO5
C                     5.533226359702     0.003100851452    -2.961555759115
C                     4.521728130276     0.498301773635    -3.807156033395
C                     5.251338834931    -0.332321547308    -1.636231276239
C                     5.168355783637    -3.858193270326    -2.570299989277
C                     4.379167461632    -4.455136115536    -0.280951844210
C                     3.720659822225    -0.989933750081     1.331340476330
C                     3.214305310262     0.672360228757    -3.350947285266
C                     4.912033132712    -3.330624551997    -3.813452575438
C                     3.370024457093    -4.498688654125     0.653358517600
C                     2.792912787149    -1.185886499536     2.354233626802
C                     2.596622951811    -2.889636533271    -3.190928896397
C                     1.812727269762    -3.483167137992    -0.922788152478
C                     0.994395343688    -0.270752143979     0.969432430086
C                     4.151896634280    -3.925133742967    -1.579264899710
C                     3.950099953342    -0.161605047359    -1.150853724623
C                     3.302536016158    -0.435651113095     0.115881760351
C                     2.846896403412    -3.433602320774    -1.899937647912
C                     2.939102050385     0.345270026810    -2.019365292458
C                     1.934153399670    -0.076312460339    -0.046835823884
C                     3.613643182472    -2.839097188594    -4.125985472160
C                     2.076955531876    -4.003988031952     0.328744462825
C                     1.439043824057    -0.841601282098     2.157878136448
C                    -0.181535416894    -0.665267597809    -2.467474507117
C                     2.173369852208    -1.896454624678    -5.778688749066
C                     0.430795811643     0.670191110203    -1.930245193132
C                    -0.670702406516    -3.189693405196     2.580847041430
C                    -0.107935069136    -3.448712917816     1.185141153434
C                     0.269005139502    -2.432567099577     3.526113123078
N                     1.735855093396     0.417567407980    -1.325957198900
O                    -0.079534784419    -0.850500889175    -3.710592993099
O                    -0.653361835542    -1.428941958108    -1.579336322758
O                     3.482447356442    -2.331552064949    -5.391831314991
O                     1.167002916608    -4.086800365386     1.353260430466
O                     0.494019766898    -1.062834615526     3.156277541834
H                     6.533428243211    -0.153528173258    -3.357703719349
H                     4.752198532380     0.712205997403    -4.847724099586
H                     6.025695108195    -0.750795695147    -0.997377347230
H                     6.165747386901    -4.223252810280    -2.329938291419
H                     5.371647628325    -4.824525309344    -0.026922747860
H                     4.754988703891    -1.293851229054     1.471717426421
H                     2.426086345655     1.001259544709    -4.019977094913
H                     5.684830201200    -3.259365321262    -4.573976764970
H                     3.535766781221    -4.886295805305     1.654996831481
H                     3.098370785651    -1.631303625679     3.296605294320
H                     1.608396528499    -2.493969563372    -3.404396527799
H                     0.841869569652    -3.070565978757    -1.184223115642
H                    -0.061966762497    -0.086564088730     0.816858008790
H                     2.285057793205    -1.496762288406    -6.789669109798
H                     1.772099647079    -1.134420877777    -5.106754529132
H                     1.472322937445    -2.740227692383    -5.789977490706
H                     0.562759637851     1.393203297839    -2.738180808474
H                    -0.216018223223     1.110260265620    -1.165701071877
H                    -1.611134607806    -2.635786780369     2.477360659268
H                    -0.906074370743    -4.149221601146     3.062740950675
H                    -0.774576204605    -4.109222582780     0.615109694649
H                    -0.009226030040    -2.523782491944     0.619138849931
H                     1.220545696505    -2.967711809901     3.605406137013
H                    -0.183538013963    -2.384002215617     4.522272404912
