
  -OEChem-05262117483D

 40 42  0     1  0  0  0  0  0999 V2000
   -0.5932   -1.2033   -2.0940 C   0  0  0  0  0  0  0  0  0  0  0  0
   -1.6555   -0.3595   -2.4396 C   0  0  0  0  0  0  0  0  0  0  0  0
   -1.4318    0.8336   -0.3512 C   0  0  0  0  0  0  0  0  0  0  0  0
    1.4583    3.7698   -0.4629 C   0  0  0  0  0  0  0  0  0  0  0  0
    1.3602    4.6894    1.7228 C   0  0  0  0  0  0  0  0  0  0  0  0
    1.5606    4.9122    0.3436 C   0  0  0  0  0  0  0  0  0  0  0  0
    0.0537   -1.0173   -0.8725 C   0  0  0  0  0  0  0  0  0  0  0  0
   -0.3641    0.0055   -0.0192 C   0  0  0  0  0  0  0  0  0  0  0  0
   -2.0916    0.6614   -1.5770 C   0  0  0  0  0  0  0  0  0  0  0  0
    1.0011    2.4690    1.3454 C   0  0  0  0  0  0  0  0  0  0  0  0
    1.8629    6.2743   -0.1586 C   0  0  0  0  0  0  0  0  0  0  0  0
    1.1894   -1.8023   -0.2519 C   0  0  0  0  0  0  0  0  0  0  0  0
    0.4626   -0.0175    1.2519 C   0  0  1  0  0  0  0  0  0  0  0  0
    1.7226   -0.8689    0.8708 C   0  0  2  0  0  0  0  0  0  0  0  0
   -3.2610    1.5433   -1.9538 C   0  0  0  0  0  0  0  0  0  0  0  0
    2.0712    6.4645   -1.6521 C   0  0  0  0  0  0  0  0  0  0  0  0
    2.9162   -0.0416    0.3864 C   0  0  0  0  0  0  0  0  0  0  0  0
    1.1899    2.5558    0.0129 N   0  0  0  0  0  0  0  0  0  0  0  0
    1.0812    3.4998    2.2336 N   0  0  0  0  0  0  0  0  0  0  0  0
    0.6971    1.2671    1.9027 N   0  0  0  0  0  0  0  0  0  0  0  0
    1.9433    7.2272    0.6132 O   0  0  0  0  0  0  0  0  0  0  0  0
   -0.2745   -1.9868   -2.7785 H   0  0  0  0  0  0  0  0  0  0  0  0
   -2.1538   -0.4921   -3.3979 H   0  0  0  0  0  0  0  0  0  0  0  0
   -1.7392    1.6303    0.3235 H   0  0  0  0  0  0  0  0  0  0  0  0
    1.6022    3.8263   -1.5411 H   0  0  0  0  0  0  0  0  0  0  0  0
    1.4330    5.5260    2.4148 H   0  0  0  0  0  0  0  0  0  0  0  0
    0.8097   -2.7422    0.1708 H   0  0  0  0  0  0  0  0  0  0  0  0
    1.9717   -2.0686   -0.9705 H   0  0  0  0  0  0  0  0  0  0  0  0
   -0.1005   -0.5941    1.9973 H   0  0  0  0  0  0  0  0  0  0  0  0
    2.0377   -1.4526    1.7427 H   0  0  0  0  0  0  0  0  0  0  0  0
   -4.2056    1.1252   -1.5844 H   0  0  0  0  0  0  0  0  0  0  0  0
   -3.1589    2.5458   -1.5270 H   0  0  0  0  0  0  0  0  0  0  0  0
   -3.3518    1.6457   -3.0395 H   0  0  0  0  0  0  0  0  0  0  0  0
    1.1834    6.1556   -2.2148 H   0  0  0  0  0  0  0  0  0  0  0  0
    2.9125    5.8608   -2.0098 H   0  0  0  0  0  0  0  0  0  0  0  0
    2.2746    7.5178   -1.8487 H   0  0  0  0  0  0  0  0  0  0  0  0
    2.6690    0.5169   -0.5189 H   0  0  0  0  0  0  0  0  0  0  0  0
    3.7601   -0.7062    0.1710 H   0  0  0  0  0  0  0  0  0  0  0  0
    3.2418    0.6756    1.1461 H   0  0  0  0  0  0  0  0  0  0  0  0
    0.5881    1.3146    2.9073 H   0  0  0  0  0  0  0  0  0  0  0  0
  1  2  1  0  0  0  0
  1  7  2  0  0  0  0
  1 22  1  0  0  0  0
  2  9  2  0  0  0  0
  2 23  1  0  0  0  0
  3  8  2  0  0  0  0
  3  9  1  0  0  0  0
  3 24  1  0  0  0  0
  4  6  1  0  0  0  0
  4 18  2  0  0  0  0
  4 25  1  0  0  0  0
  5  6  2  0  0  0  0
  5 19  1  0  0  0  0
  5 26  1  0  0  0  0
  6 11  1  0  0  0  0
  7  8  1  0  0  0  0
  7 12  1  0  0  0  0
  8 13  1  0  0  0  0
  9 15  1  0  0  0  0
 10 18  1  0  0  0  0
 10 19  2  0  0  0  0
 10 20  1  0  0  0  0
 11 16  1  0  0  0  0
 11 21  2  0  0  0  0
 12 14  1  0  0  0  0
 12 27  1  0  0  0  0
 12 28  1  0  0  0  0
 13 14  1  0  0  0  0
 13 20  1  0  0  0  0
 13 29  1  0  0  0  0
 14 17  1  0  0  0  0
 14 30  1  0  0  0  0
 15 31  1  0  0  0  0
 15 32  1  0  0  0  0
 15 33  1  0  0  0  0
 16 34  1  0  0  0  0
 16 35  1  0  0  0  0
 16 36  1  0  0  0  0
 17 37  1  0  0  0  0
 17 38  1  0  0  0  0
 17 39  1  0  0  0  0
 20 40  1  0  0  0  0
M  END
$$$$
