
  -OEChem-05262117483D

 58 62  0     0  0  0  0  0  0999 V2000
   -0.7665    6.9005    5.5629 C   0  0  0  0  0  0  0  0  0  0  0  0
   -1.5770    7.3291    4.4912 C   0  0  0  0  0  0  0  0  0  0  0  0
   -0.3470    5.5695    5.6465 C   0  0  0  0  0  0  0  0  0  0  0  0
   -3.8932    3.3789    5.3987 C   0  0  0  0  0  0  0  0  0  0  0  0
   -4.3906    1.3818    4.0246 C   0  0  0  0  0  0  0  0  0  0  0  0
    0.0893    2.2397    5.1717 C   0  0  0  0  0  0  0  0  0  0  0  0
   -1.9730    6.4504    3.4791 C   0  0  0  0  0  0  0  0  0  0  0  0
   -3.3402    3.9494    6.5266 C   0  0  0  0  0  0  0  0  0  0  0  0
   -4.2989    0.0226    3.8180 C   0  0  0  0  0  0  0  0  0  0  0  0
    0.0456    0.9230    4.7106 C   0  0  0  0  0  0  0  0  0  0  0  0
   -2.6583    1.7531    7.3299 C   0  0  0  0  0  0  0  0  0  0  0  0
   -3.1315   -0.2524    5.9366 C   0  0  0  0  0  0  0  0  0  0  0  0
   -1.2798    1.6070    2.7646 C   0  0  0  0  0  0  0  0  0  0  0  0
   -3.8502    1.9766    5.1971 C   0  0  0  0  0  0  0  0  0  0  0  0
   -0.7349    4.6695    4.6486 C   0  0  0  0  0  0  0  0  0  0  0  0
   -0.5401    3.2509    4.4440 C   0  0  0  0  0  0  0  0  0  0  0  0
   -3.2190    1.1473    6.1787 C   0  0  0  0  0  0  0  0  0  0  0  0
   -1.5353    5.1241    3.5581 C   0  0  0  0  0  0  0  0  0  0  0  0
   -1.2172    2.9220    3.2316 C   0  0  0  0  0  0  0  0  0  0  0  0
   -2.7122    3.1264    7.4962 C   0  0  0  0  0  0  0  0  0  0  0  0
   -3.6391   -0.7939    4.7754 C   0  0  0  0  0  0  0  0  0  0  0  0
   -0.6569    0.6159    3.5261 C   0  0  0  0  0  0  0  0  0  0  0  0
   -4.0297    4.1691    1.4060 C   0  0  0  0  0  0  0  0  0  0  0  0
   -2.2316    5.0221    8.8828 C   0  0  0  0  0  0  0  0  0  0  0  0
   -2.4587    4.1672    1.4091 C   0  0  0  0  0  0  0  0  0  0  0  0
   -1.4585   -2.9313    3.4734 C   0  0  0  0  0  0  0  0  0  0  0  0
   -2.9451   -2.5931    3.3329 C   0  0  0  0  0  0  0  0  0  0  0  0
   -0.6213   -1.7545    3.9632 C   0  0  0  0  0  0  0  0  0  0  0  0
   -1.7857    4.0670    2.6983 N   0  0  0  0  0  0  0  0  0  0  0  0
   -4.5074    4.1029    0.2480 O   0  5  0  0  0  0  0  0  0  0  0  0
   -4.6068    4.2515    2.5238 O   0  0  0  0  0  0  0  0  0  0  0  0
   -2.1029    3.6284    8.6302 O   0  0  0  0  0  0  0  0  0  0  0  0
   -3.5139   -2.1668    4.5814 O   0  0  0  0  0  0  0  0  0  0  0  0
   -0.7915   -0.6733    3.0470 O   0  0  0  0  0  0  0  0  0  0  0  0
   -0.4754    7.6112    6.3335 H   0  0  0  0  0  0  0  0  0  0  0  0
   -1.9139    8.3629    4.4570 H   0  0  0  0  0  0  0  0  0  0  0  0
    0.2617    5.2327    6.4833 H   0  0  0  0  0  0  0  0  0  0  0  0
   -4.3105    3.9943    4.6053 H   0  0  0  0  0  0  0  0  0  0  0  0
   -4.8523    2.0373    3.2901 H   0  0  0  0  0  0  0  0  0  0  0  0
    0.5951    2.4663    6.1070 H   0  0  0  0  0  0  0  0  0  0  0  0
   -2.6340    6.7720    2.6808 H   0  0  0  0  0  0  0  0  0  0  0  0
   -3.3436    5.0283    6.6268 H   0  0  0  0  0  0  0  0  0  0  0  0
   -4.7199   -0.4243    2.9219 H   0  0  0  0  0  0  0  0  0  0  0  0
    0.5281    0.1390    5.2829 H   0  0  0  0  0  0  0  0  0  0  0  0
   -2.1561    1.1494    8.0817 H   0  0  0  0  0  0  0  0  0  0  0  0
   -2.6347   -0.9015    6.6535 H   0  0  0  0  0  0  0  0  0  0  0  0
   -1.8514    1.3264    1.8874 H   0  0  0  0  0  0  0  0  0  0  0  0
   -1.7154    5.2024    9.8291 H   0  0  0  0  0  0  0  0  0  0  0  0
   -3.2847    5.3161    8.9842 H   0  0  0  0  0  0  0  0  0  0  0  0
   -1.7666    5.6233    8.0936 H   0  0  0  0  0  0  0  0  0  0  0  0
   -2.1152    3.3430    0.7811 H   0  0  0  0  0  0  0  0  0  0  0  0
   -2.1243    5.0885    0.9204 H   0  0  0  0  0  0  0  0  0  0  0  0
   -1.3331   -3.7590    4.1825 H   0  0  0  0  0  0  0  0  0  0  0  0
   -1.0899   -3.2729    2.4971 H   0  0  0  0  0  0  0  0  0  0  0  0
   -3.0739   -1.8241    2.5685 H   0  0  0  0  0  0  0  0  0  0  0  0
   -3.5018   -3.4848    3.0245 H   0  0  0  0  0  0  0  0  0  0  0  0
    0.4407   -2.0343    4.0228 H   0  0  0  0  0  0  0  0  0  0  0  0
   -0.9549   -1.4578    4.9604 H   0  0  0  0  0  0  0  0  0  0  0  0
  1  2  1  0  0  0  0
  1  3  2  0  0  0  0
  1 35  1  0  0  0  0
  2  7  2  0  0  0  0
  2 36  1  0  0  0  0
  3 15  1  0  0  0  0
  3 37  1  0  0  0  0
  4  8  2  0  0  0  0
  4 14  1  0  0  0  0
  4 38  1  0  0  0  0
  5  9  2  0  0  0  0
  5 14  1  0  0  0  0
  5 39  1  0  0  0  0
  6 10  2  0  0  0  0
  6 16  1  0  0  0  0
  6 40  1  0  0  0  0
  7 18  1  0  0  0  0
  7 41  1  0  0  0  0
  8 20  1  0  0  0  0
  8 42  1  0  0  0  0
  9 21  1  0  0  0  0
  9 43  1  0  0  0  0
 10 22  1  0  0  0  0
 10 44  1  0  0  0  0
 11 17  1  0  0  0  0
 11 20  2  0  0  0  0
 11 45  1  0  0  0  0
 12 17  1  0  0  0  0
 12 21  2  0  0  0  0
 12 46  1  0  0  0  0
 13 19  1  0  0  0  0
 13 22  2  0  0  0  0
 13 47  1  0  0  0  0
 14 17  2  0  0  0  0
 15 16  1  0  0  0  0
 15 18  2  0  0  0  0
 16 19  2  0  0  0  0
 18 29  1  0  0  0  0
 19 29  1  0  0  0  0
 20 32  1  0  0  0  0
 21 33  1  0  0  0  0
 22 34  1  0  0  0  0
 23 25  1  0  0  0  0
 23 30  1  0  0  0  0
 23 31  2  0  0  0  0
 24 32  1  0  0  0  0
 24 48  1  0  0  0  0
 24 49  1  0  0  0  0
 24 50  1  0  0  0  0
 25 29  1  0  0  0  0
 25 51  1  0  0  0  0
 25 52  1  0  0  0  0
 26 27  1  0  0  0  0
 26 28  1  0  0  0  0
 26 53  1  0  0  0  0
 26 54  1  0  0  0  0
 27 33  1  0  0  0  0
 27 55  1  0  0  0  0
 27 56  1  0  0  0  0
 28 34  1  0  0  0  0
 28 57  1  0  0  0  0
 28 58  1  0  0  0  0
M  CHG  1  30  -1
M  END
$$$$
