
  -OEChem-05262117483D

 40 42  0     1  0  0  0  0  0999 V2000
    0.0462   -1.3578   -1.9729 C   0  0  0  0  0  0  0  0  0  0  0  0
   -0.9606   -0.8838   -2.8253 C   0  0  0  0  0  0  0  0  0  0  0  0
   -1.7750    0.5957   -1.0973 C   0  0  0  0  0  0  0  0  0  0  0  0
   -1.0355    4.3678    3.9164 C   0  0  0  0  0  0  0  0  0  0  0  0
   -0.9361    2.2178    4.9191 C   0  0  0  0  0  0  0  0  0  0  0  0
   -1.0492    3.6091    5.1003 C   0  0  0  0  0  0  0  0  0  0  0  0
    0.1411   -0.8448   -0.6813 C   0  0  0  0  0  0  0  0  0  0  0  0
   -0.7694    0.1287   -0.2553 C   0  0  0  0  0  0  0  0  0  0  0  0
   -1.8806    0.0901   -2.4050 C   0  0  0  0  0  0  0  0  0  0  0  0
   -0.8268    2.4786    2.6610 C   0  0  0  0  0  0  0  0  0  0  0  0
   -1.1631    4.1791    6.4650 C   0  0  0  0  0  0  0  0  0  0  0  0
    1.1147   -1.1753    0.4300 C   0  0  0  0  0  0  0  0  0  0  0  0
   -0.4738    0.5199    1.1774 C   0  0  1  0  0  0  0  0  0  0  0  0
    1.0015    0.0418    1.3881 C   0  0  2  0  0  0  0  0  0  0  0  0
   -2.9805    0.5653   -3.3274 C   0  0  0  0  0  0  0  0  0  0  0  0
   -1.2987    5.6859    6.6099 C   0  0  0  0  0  0  0  0  0  0  0  0
    2.0230    1.1265    1.0322 C   0  0  0  0  0  0  0  0  0  0  0  0
   -0.9269    3.8317    2.7057 N   0  0  0  0  0  0  0  0  0  0  0  0
   -0.8207    1.6414    3.7283 N   0  0  0  0  0  0  0  0  0  0  0  0
   -0.7315    1.9291    1.4265 N   0  0  0  0  0  0  0  0  0  0  0  0
   -1.1485    3.4517    7.4552 O   0  0  0  0  0  0  0  0  0  0  0  0
    0.7507   -2.1074   -2.3271 H   0  0  0  0  0  0  0  0  0  0  0  0
   -1.0284   -1.2731   -3.8391 H   0  0  0  0  0  0  0  0  0  0  0  0
   -2.4784    1.3503   -0.7489 H   0  0  0  0  0  0  0  0  0  0  0  0
   -1.1128    5.4538    3.9436 H   0  0  0  0  0  0  0  0  0  0  0  0
   -0.9365    1.5653    5.7899 H   0  0  0  0  0  0  0  0  0  0  0  0
    0.8061   -2.0980    0.9390 H   0  0  0  0  0  0  0  0  0  0  0  0
    2.1381   -1.3323    0.0732 H   0  0  0  0  0  0  0  0  0  0  0  0
   -1.1188   -0.0448    1.8588 H   0  0  0  0  0  0  0  0  0  0  0  0
    1.1447   -0.2539    2.4306 H   0  0  0  0  0  0  0  0  0  0  0  0
   -3.9058    0.0011   -3.1582 H   0  0  0  0  0  0  0  0  0  0  0  0
   -3.2101    1.6231   -3.1652 H   0  0  0  0  0  0  0  0  0  0  0  0
   -2.7053    0.4364   -4.3783 H   0  0  0  0  0  0  0  0  0  0  0  0
   -2.1883    6.0519    6.0855 H   0  0  0  0  0  0  0  0  0  0  0  0
   -0.4309    6.2001    6.1821 H   0  0  0  0  0  0  0  0  0  0  0  0
   -1.3771    5.9329    7.6693 H   0  0  0  0  0  0  0  0  0  0  0  0
    1.9157    1.4504   -0.0098 H   0  0  0  0  0  0  0  0  0  0  0  0
    3.0405    0.7426    1.1585 H   0  0  0  0  0  0  0  0  0  0  0  0
    1.9176    2.0062    1.6738 H   0  0  0  0  0  0  0  0  0  0  0  0
   -0.6133    2.5890    0.6675 H   0  0  0  0  0  0  0  0  0  0  0  0
  1  2  1  0  0  0  0
  1  7  2  0  0  0  0
  1 22  1  0  0  0  0
  2  9  2  0  0  0  0
  2 23  1  0  0  0  0
  3  8  2  0  0  0  0
  3  9  1  0  0  0  0
  3 24  1  0  0  0  0
  4  6  1  0  0  0  0
  4 18  2  0  0  0  0
  4 25  1  0  0  0  0
  5  6  2  0  0  0  0
  5 19  1  0  0  0  0
  5 26  1  0  0  0  0
  6 11  1  0  0  0  0
  7  8  1  0  0  0  0
  7 12  1  0  0  0  0
  8 13  1  0  0  0  0
  9 15  1  0  0  0  0
 10 18  1  0  0  0  0
 10 19  2  0  0  0  0
 10 20  1  0  0  0  0
 11 16  1  0  0  0  0
 11 21  2  0  0  0  0
 12 14  1  0  0  0  0
 12 27  1  0  0  0  0
 12 28  1  0  0  0  0
 13 14  1  0  0  0  0
 13 20  1  0  0  0  0
 13 29  1  0  0  0  0
 14 17  1  0  0  0  0
 14 30  1  0  0  0  0
 15 31  1  0  0  0  0
 15 32  1  0  0  0  0
 15 33  1  0  0  0  0
 16 34  1  0  0  0  0
 16 35  1  0  0  0  0
 16 36  1  0  0  0  0
 17 37  1  0  0  0  0
 17 38  1  0  0  0  0
 17 39  1  0  0  0  0
 20 40  1  0  0  0  0
M  END
$$$$
