33
0 1 C10H19NO2S
C                    -1.067303252481    -0.472535452609     0.691115136953
C                     1.599932047967     1.309330964243    -0.156651218402
C                     1.848662133066    -0.134004846834    -0.612703107822
C                     0.128768775920     1.689439653181     0.059439983650
C                     1.345257794636    -1.202098695360     0.368011904281
C                    -0.554340185008     0.882340185457     1.175003557440
C                    -1.638895572367     0.812476342109     6.474634067429
C                    -1.988230521547     1.581165026904     5.196627351289
C                    -0.743657306246     1.969227339278     4.385967859756
C                    -1.048228631289     2.779291464115     3.123761036309
N                    -0.106160330482    -1.390370146554     0.369831585956
O                    -2.265038812946    -0.725924583208     0.579603570721
O                    -2.394262675976     2.884350158772     0.807109490340
S                    -2.026953614282     1.846633055970     1.854466508553
H                     2.155681929313     1.488265305809     0.774676261432
H                     2.025307127017     1.991230802870    -0.902059656707
H                     1.382037769821    -0.308035615404    -1.589840405721
H                     2.928144388468    -0.278031648566    -0.744324228284
H                     0.063449051365     2.753766167433     0.304652765416
H                    -0.445306602191     1.571439173113    -0.864386864316
H                     1.777408606862    -2.171353459489     0.106683480365
H                     1.694712941127    -0.972325103224     1.383432331691
H                     0.134548608168     0.734900270093     2.013804216777
H                    -0.992342993377     1.406154761900     7.131397205368
H                    -2.540068396862     0.552170791282     7.039084320633
H                    -1.111057153582    -0.120027689168     6.243154286255
H                    -2.659870100903     0.977421524271     4.576151439884
H                    -2.544194836083     2.492108960424     5.452585086902
H                    -0.073278724432     2.566985069768     5.016967857024
H                    -0.178032454263     1.062475955088     4.131942541731
H                    -1.692973599137     3.635381676451     3.345762158243
H                    -0.144453397941     3.162510058727     2.638152874556
H                    -0.481374463604    -2.253469702637    -0.006689900631
