19   
torsion grid (-165,)
C        1.9606531987   -0.9645235645   -0.1162824660
C        0.8444816764   -0.3401084593    0.4543835231
C        2.8786460074   -1.6568920973    0.6721496158
C        1.5738048628   -1.1358554967    2.6498999053
C        0.6861018633   -0.4446126407    1.8303605140
C        2.6922637037   -1.7478864751    2.0642773896
C        4.7445544883   -2.6548877269    5.5842579372
C        3.5577384681   -2.2264985280    4.7198702977
F       -0.3905342812    0.1471036653    2.4138838596
S        3.8985252519   -2.6795035382    2.9764708289
H        2.1188589219   -0.9014230568   -1.1894735077
H        0.1212582784    0.2096647720   -0.1390049330
H        3.7464858107   -2.1222534219    0.2127359621
H        1.3669567938   -1.1880506051    3.7124158783
H        4.9217693919   -3.7329286907    5.5163841805
H        5.6592358367   -2.1377304856    5.2811704149
H        4.5442379118   -2.4137300939    6.6332768243
H        3.4195075071   -1.1429876433    4.7758364894
H        2.6371854516   -2.7145495281    5.0530497707
19   
torsion grid (-150,)
C        2.0467896375   -0.9141399375   -0.0604413868
C        0.9345297624   -0.2618408099    0.4841020712
C        2.8754090797   -1.7072628299    0.7343396015
C        1.4718520884   -1.2432658355    2.6584444148
C        0.6809536039   -0.4449053294    1.8385107028
C        2.5936518571   -1.8767323443    2.1015044710
C        4.8122621195   -2.5580725246    5.5079791874
C        3.5067191532   -2.3120929196    4.7505402289
F       -0.3978778006    0.1701861306    2.3925706975
S        3.6669648343   -2.9472122545    3.0311043010
H        2.2773482986   -0.7892877603   -1.1149557348
H        0.2834194523    0.3687151818   -0.1125791493
H        3.7491420380   -2.1861392449    0.3014735828
H        1.1908447230   -1.3668054978    3.6984858241
H        5.0682397134   -3.6222320166    5.5340822456
H        5.6415814304   -2.0191450904    5.0420222214
H        4.7114106165   -2.2142186743    6.5431111038
H        3.2996996741   -1.2403208477    4.6946572712
H        2.6648177161   -2.8031346300    5.2464283144
19   
torsion grid (-135,)
C        2.1397554637   -0.8793970532   -0.0041681562
C        1.0305819864   -0.1928396058    0.5011690470
C        2.8757121060   -1.7489742985    0.8038684046
C        1.3717955503   -1.2973637863    2.6546104107
C        0.6791259776   -0.4201200556    1.8277096216
C        2.4961581537   -1.9620032807    2.1396699680
C        4.8478237988   -2.4591770997    5.3856156117
C        3.4442032636   -2.3914765124    4.7831346977
F       -0.4016257032    0.2271061144    2.3393351467
S        3.4356281307   -3.1363522693    3.0935098393
H        2.4438192628   -0.7202060165   -1.0351540049
H        0.4524913343    0.4974952883   -0.1046168177
H        3.7526535232   -2.2524933753    0.4077138927
H        1.0171251924   -1.4605521785    3.6668552935
H        5.2117893558   -3.4901251364    5.4415818675
H        5.5564838444   -1.8810061413    4.7866016033
H        4.8371656688   -2.0533590411    6.4037113731
H        3.1225597633   -1.3519949946    4.6880256401
H        2.7190809083   -2.9189434015    5.4083550779
19   
torsion grid (-120,)
C        1.8114085032   -1.4713150214   -0.0923240258
C        1.0938570197   -0.3898377021    0.4274702641
C        2.7353769997   -2.1653469898    0.6942783338
C        2.2741150593   -0.6682690709    2.5467863189
C        1.3432000275   -0.0184397142    1.7455795150
C        2.9709337389   -1.7673489279    2.0194098704
C        4.2271891302   -2.1621770684    5.7255587755
C        3.4263478568   -2.8346151614    4.6120186975
F        0.6656294733    1.0379228648    2.2686076000
S        4.2200829272   -2.6329108222    2.9539286252
H        1.6350360150   -1.7880836295   -1.1166545704
H        0.3623039694    0.1545241320   -0.1610264279
H        3.2645678966   -3.0228674307    0.2898518072
H        2.4549456594   -0.3018843028    3.5523063454
H        5.2491864642   -2.5510474039    5.7669735600
H        4.2880134896   -1.0803496587    5.5727658683
H        3.7549388999   -2.3500950729    6.6970163543
H        2.4108453017   -2.4396967213    4.5483086055
H        3.3469660018   -3.9109415207    4.7899196778
19   
torsion grid (-105,)
C        1.8738288293   -1.3772717020   -0.0994547188
C        1.1728617098   -0.3093233337    0.4713028535
C        2.7234733890   -2.1736515057    0.6706620533
C        2.2203927283   -0.8212681426    2.6200493579
C        1.3656444867   -0.0641904169    1.8264151635
C        2.9020887528   -1.9012260744    2.0379266833
C        4.2090333912   -2.0175877298    5.6021106749
C        3.3975202587   -2.9000047816    4.6535352357
F        0.7047845304    0.9732893134    2.4059335662
S        4.0531200570   -2.9239556520    2.9323346801
H        1.7423353198   -1.6009192079   -1.1546416952
H        0.4981203912    0.3149308624   -0.1054255282
H        3.2383653451   -3.0165865452    0.2188678664
H        2.3492003942   -0.5448735806    3.6608386767
H        5.2570861586   -2.3298608219    5.6244734074
H        4.1824446781   -0.9677839000    5.2947313006
H        3.8101684118   -2.0887532513    6.6210769276
H        2.3455919601   -2.6092937278    4.6137807556
H        3.4286029080   -3.9416504561    4.9860520571
19   
torsion grid (-90,)
C        2.0185760718   -1.3041395941   -0.0994420312
C        1.2956319576   -0.2564105410    0.4843291468
C        2.7581372825   -2.1909182739    0.6818115768
C        2.0851270935   -0.9936225159    2.6793184012
C        1.3509441678   -0.1346014128    1.8667091690
C        2.7962002463   -2.0442578524    2.0812778904
C        4.2286387448   -1.8958536861    5.4281301750
C        3.3504852096   -2.9350373139    4.7288570583
F        0.6650728401    0.8756940898    2.4655779876
S        3.7876416040   -3.2216635878    2.9721227028
H        1.9970545487   -1.4334833726   -1.1781209236
H        0.7096436147    0.4423140999   -0.1036544050
H        3.3009498090   -3.0058153971    0.2105853900
H        2.0888391329   -0.8139727030    3.7478285656
H        5.2801109485   -2.1942206176    5.3943015750
H        4.1470897776   -0.9130527739    4.9550595670
H        3.9332529757   -1.7957998367    6.4793580187
H        2.2858885934   -2.6964437653    4.7924078481
H        3.4795905179   -3.9147375181    5.1984252525
19   
torsion grid (-75,)
C        2.1781505097   -1.2214544011   -0.0425767593
C        1.4173653589   -0.1959610257    0.5322493980
C        2.7975140080   -2.1871323574    0.7495185011
C        1.9000810767   -1.1349708460    2.7402618417
C        1.3032403034   -0.1851822300    1.9164291658
C        2.6605710526   -2.1547012136    2.1500719354
C        4.2675253994   -1.8264197557    5.2075055922
C        3.3156833315   -2.9529105169    4.8027192102
F        0.5718605624    0.7978002064    2.5066856787
S        3.4589611425   -3.4638535803    3.0513100160
H        2.2926069084   -1.2626232451   -1.1223582648
H        0.9317317082    0.5701879718   -0.0631887936
H        3.3906024004   -2.9700931178    0.2846643799
H        1.7520610094   -1.0553627240    3.8107015281
H        5.3064212045   -2.1193865220    5.0330459900
H        4.0766044199   -0.9127178888    4.6381687706
H        4.1475045980   -1.5950655651    6.2724698530
H        2.2719960847   -2.7164995756    5.0272306597
H        3.5506410288   -3.8687062107    5.3536189000
19   
torsion grid (-60,)
C        2.3524301375   -1.1442676716    0.0713445844
C        1.5380380907   -0.1417371887    0.6084486885
C        2.8412790219   -2.1783366252    0.8725721170
C        1.6732743089   -1.2482844026    2.7838366481
C        1.2239375689   -0.2219171003    1.9610796139
C        2.5015931136   -2.2386927945    2.2344483205
C        4.2890280560   -1.7865375774    4.9553975023
C        3.3026821593   -2.9494695085    4.8608734454
F        0.4318306285    0.7385043096    2.5078317165
S        3.0956065799   -3.6338266841    3.1696326599
H        2.6213503433   -1.1093514326   -0.9808734913
H        1.1585361200    0.6790918552    0.0085341807
H        3.4941258483   -2.9353994281    0.4477572633
H        1.3649416189   -1.2603620349    3.8237025914
H        5.2776958498   -2.0856219306    4.5958351963
H        3.9578742639   -0.9303637327    4.3621983438
H        4.3832240638   -1.4592614435    5.9973894421
H        2.3237357213   -2.6808103775    5.2684422866
H        3.6565542713   -3.8105019123    5.4361623936
19   
torsion grid (-45,)
C        2.5599411746   -1.0776979602    0.2411968531
C        1.6686998420   -0.0973300578    0.6856794055
C        2.8977674333   -2.1621920443    1.0578972948
C        1.4117903280   -1.3224450495    2.7825327456
C        1.1183715344   -0.2446816814    1.9565524360
C        2.3247241699   -2.2886655388    2.3309938280
C        4.3081009049   -1.7829315512    4.6891822190
C        3.3386124713   -2.9449988095    4.8882649518
F        0.2454026213    0.6965374977    2.4032423840
S        2.7249879434   -3.7176381640    3.3263158128
H        3.0069673484   -0.9876422706   -0.7450547657
H        1.4011649983    0.7591898472    0.0749489702
H        3.6117467998   -2.9054453761    0.7169925984
H        0.9311392693   -1.4021191687    3.7526011819
H        5.1761723890   -2.0905739504    4.0982367536
H        3.8293494678   -0.9446413315    4.1776054134
H        4.6620142814   -1.4260721817    5.6632671021
H        2.4810394970   -2.6347025351    5.4928519160
H        3.8201004963   -3.7777658869    5.4095945056
19   
torsion grid (-30,)
C        2.6797658784   -1.0470634961    0.3773865415
C        1.7446131677   -0.0673177399    0.7226954638
C        2.9079226218   -2.1443017738    1.2149546337
C        1.2332042516   -1.3107037034    2.7590426939
C        1.0416937699   -0.2234128696    1.9144386814
C        2.1879911557   -2.2781444310    2.4100193304
C        4.2769725187   -1.7701317947    4.5425239147
C        3.4049779703   -2.9746936067    4.8835943511
F        0.1255250077    0.7182190927    2.2615573946
S        2.4611409452   -3.7030210025    3.4591107887
H        3.2404293614   -0.9493734920   -0.5482238899
H        1.5552975116    0.7957471941    0.0920249065
H        3.6457641762   -2.8951657885    0.9510639315
H        0.6466603698   -1.3999669956    3.6678618009
H        4.9976157499   -2.0077778840    3.7540755190
H        3.6779208664   -0.9201779985    4.2078914669
H        4.8336119251   -1.4609239592    5.4346252512
H        2.6918305004   -2.7150078539    5.6713200470
H        4.0126417846   -3.8085126234    5.2464603493
19   
torsion grid (-15,)
C        2.4553852435   -1.6925209967    0.3743261011
C        1.0820603562   -1.5440995107    0.5936500426
C        3.3798801485   -1.2655023586    1.3323712617
C        1.5619030370   -0.5258944688    2.7588329643
C        0.6668782683   -0.9589441310    1.7858827705
C        2.9359034179   -0.6890322567    2.5319989936
C        3.4213152702   -2.7673823327    4.6298649996
C        4.4204494971   -1.6273430959    4.7974272573
F       -0.6643465052   -0.8047983466    2.0107292375
S        4.1119306006   -0.1119657473    3.7542884936
H        2.8045627087   -2.1411332216   -0.5517015590
H        0.3452941112   -1.8651740880   -0.1361620434
H        4.4453869159   -1.3758055349    1.1568739214
H        1.1941001471   -0.0722619604    3.6731358826
H        2.4041693617   -2.4564877784    4.8844920612
H        3.4108459596   -3.1496099292    3.6061861149
H        3.7024559367   -3.5906852242    5.2964529656
H        5.4299500961   -1.9770418495    4.5648857159
H        4.4198501988   -1.2607952104    5.8273556198
19   
torsion grid (0,)
C        2.4128396691   -1.7060967421    0.3651163855
C        1.0491642686   -1.5273371735    0.6172723218
C        3.3704931061   -1.2990314420    1.2994755778
C        1.6063772095   -0.5079739789    2.7640411286
C        0.6781116023   -0.9283759242    1.8174948501
C        2.9708631476   -0.7051965263    2.5057520330
C        3.4848575890   -2.7996293939    4.5642968612
C        4.3613457863   -1.5877443464    4.8626245922
F       -0.6433423185   -0.7436593038    2.0749157219
S        4.1970533552   -0.1461215747    3.6861376205
H        2.7291100608   -2.1666263241   -0.5668475234
H        0.2873013814   -1.8352844152   -0.0921823890
H        4.4282724975   -1.4390923603    1.1008072980
H        1.2711929108   -0.0356460041    3.6815465055
H        2.4206465575   -2.5564165428    4.6189150207
H        3.6856501685   -3.2109562319    3.5714969304
H        3.6924404848   -3.5806230511    5.3046332998
H        5.4171257098   -1.8701939443    4.8407795854
H        4.1378763627   -1.1921212962    5.8567496895
19   
torsion grid (15,)
C        2.3583218159   -1.7495022045    0.3957795120
C        1.0056845818   -1.5049323954    0.6516345776
C        3.3398845794   -1.3554624641    1.3107520484
C        1.6215038886   -0.4433844160    2.7609042323
C        0.6686506302   -0.8536459713    1.8346935507
C        2.9743086080   -0.7073903577    2.4993627127
C        3.6083320381   -2.8574320400    4.4824561946
C        4.2885414996   -1.5581003574    4.9011374406
F       -0.6418535762   -0.6051334969    2.0942814570
S        4.2336401650   -0.1709377891    3.6550515551
H        2.6472617617   -2.2520944513   -0.5232327513
H        0.2260357690   -1.8023052446   -0.0428162366
H        4.3891156347   -1.5475012469    1.1104815699
H        1.3138620711    0.0707217624    3.6656461053
H        2.5370224401   -2.7196183586    4.3176161383
H        4.0413025404   -3.2637652358    3.5639798557
H        3.7356555802   -3.6008402047    5.2776547377
H        5.3534410324   -1.7223980422    5.0859226627
H        3.8410155938   -1.1803052624    5.8243845243
19   
torsion grid (30,)
C        2.3338314279   -1.7202692319    0.3508018569
C        1.0001327033   -1.4618373501    0.6797313676
C        3.3665610966   -1.3704974833    1.2273515215
C        1.7382723031   -0.4625669702    2.7808384048
C        0.7342573786   -0.8375727678    1.8955768846
C        3.0716710435   -0.7441281641    2.4461444553
C        3.7223356300   -2.8901968766    4.4798486371
C        4.2657160847   -1.5292107552    4.9040286334
F       -0.5572667553   -0.5753331723    2.2267949121
S        4.4014470768   -0.2684121035    3.5465049998
H        2.5683337469   -2.2049287391   -0.5929947292
H        0.1817446035   -1.7292724456    0.0185118939
H        4.4000959599   -1.5853950614    0.9753990820
H        1.4833959576    0.0397203986    3.7086066093
H        2.6887661195   -2.8214277849    4.1329266685
H        4.3211740676   -3.3274943522    3.6751264373
H        3.7463917229   -3.5738894447    5.3361805468
H        5.2880248133   -1.6154992566    5.2829618283
H        3.6488642347   -1.1074044270    5.7028080142
19   
torsion grid (45,)
C        2.2807350256   -1.5968781220    0.2170357954
C        0.9617759287   -1.3907832628    0.6305505189
C        3.3506991627   -1.3404051623    1.0810663568
C        1.7907664838   -0.6186126639    2.7936566236
C        0.7503608976   -0.9082894524    1.9197750878
C        3.1096726601   -0.8501261929    2.3720709702
C        3.6806358142   -2.9161634065    4.6411707343
C        4.1295682644   -1.4863955429    4.9312471807
F       -0.5258515292   -0.6967374903    2.3369614321
S        4.4975822208   -0.4714714978    3.4320002594
H        2.4756900299   -1.9750742911   -0.7827658542
H        0.1152905691   -1.5942175987   -0.0177293941
H        4.3713752152   -1.5286344489    0.7629676409
H        1.5696270663   -0.2167551049    3.7775183917
H        2.7324778926   -2.9364774057    4.0987143961
H        4.4257310934   -3.4494828070    4.0430206492
H        3.5416733462   -3.4582212220    5.5836929355
H        5.0738156793   -1.4721889664    5.4838427997
H        3.3871341952   -0.9635979124    5.5417110117
19   
torsion grid (60,)
C        2.2098362142   -1.3863013372    0.0399407103
C        0.9116332760   -1.2689137117    0.5475094046
C        3.3214325338   -1.2777133290    0.8782846067
C        1.8552960357   -0.8904254161    2.7705657930
C        0.7721403812   -1.0269398758    1.9101129313
C        3.1512536776   -1.0253598466    2.2498041219
C        3.6581016425   -2.8924576973    4.9076936805
C        4.1085403150   -1.4325909997    4.8888065734
F       -0.4787304646   -0.9059869991    2.4292449247
S        4.6197572784   -0.8168068295    3.2364626801
H        2.3551523612   -1.5803477141   -1.0192695811
H        0.0328543177   -1.3640519944   -0.0820786439
H        4.3226340363   -1.3972120325    0.4743741972
H        1.6698327462   -0.6749232831    3.8173044284
H        2.7753192768   -3.0482869169    4.2824439438
H        4.4527017738   -3.5486851341    4.5413589813
H        3.4046967204   -3.1926630333    5.9310990473
H        5.0085403355   -1.2931991780    5.4955476233
H        3.3439876976   -0.7701305932    5.3050525300
19   
torsion grid (75,)
C        2.2021694328   -1.1802736365   -0.0560218820
C        0.9115186206   -1.1173023761    0.4835732617
C        3.3250597901   -1.2243397267    0.7690639280
C        1.8946323610   -1.1309010199    2.7238086699
C        0.7979487097   -1.0957913644    1.8676608669
C        3.1809488698   -1.1959599420    2.1689834627
C        3.6766891773   -2.8807415894    5.1617249183
C        4.1255255564   -1.4540837634    4.8424058919
F       -0.4415928855   -1.0354775649    2.4241010719
S        4.6858354432   -1.2120927954    3.1171148032
H        2.3311327085   -1.2009235498   -1.1347521636
H        0.0231595114   -1.0890021703   -0.1388068231
H        4.3178197406   -1.2815328738    0.3308243057
H        1.7154669298   -1.1016866408    3.7920223524
H        2.8250694258   -3.1827646537    4.5461690876
H        4.4894907254   -3.5894470435    4.9808169918
H        3.3796724289   -2.9564976038    6.2144006071
H        5.0067154348   -1.1889138822    5.4344240667
H        3.3580428050   -0.7130048414    5.0818884015
19   
torsion grid (90,)
C        2.1919482544   -0.9982568657   -0.0995830261
C        0.9027263424   -0.9796065207    0.4469588874
C        3.3128802197   -1.1867259034    0.7076302411
C        1.8806512832   -1.3624464791    2.6570971803
C        0.7876838354   -1.1619687939    1.8189771549
C        3.1659250822   -1.3686391815    2.0957415406
C        3.7075621313   -2.8256819007    5.3905329894
C        4.1333701119   -1.4934640516    4.7709364230
F       -0.4507528633   -1.1551846546    2.3810079481
S        4.6637346792   -1.6194681581    3.0210418388
H        2.3222505407   -0.8558316319   -1.1689125526
H        0.0168680227   -0.8297309245   -0.1614245150
H        4.3058824548   -1.1840164975    0.2663455791
H        1.6986927032   -1.5163560438    3.7141187490
H        2.8499211527   -3.2590219731    4.8680159540
H        4.5248875029   -3.5507102819    5.3450121814
H        3.4320912164   -2.6836184198    6.4423290057
H        5.0140396684   -1.1015092761    5.2884011687
H        3.3583739866   -0.7269679485    4.8496686299
19   
torsion grid (105,)
C        2.1762080353   -0.8362736541   -0.0913918525
C        0.8820063209   -0.8469291912    0.4400492536
C        3.2802201615   -1.1661180948    0.6970657943
C        1.8099756686   -1.5677385795    2.5842002774
C        0.7374185067   -1.2111993271    1.7742699802
C        3.1041876281   -1.5336794257    2.0421617733
C        3.7939173832   -2.7524005641    5.5722972586
C        4.1321364078   -1.5486411945    4.6928476892
F       -0.5099773198   -1.2396432323    2.3147112203
S        4.5568336579   -2.0028793435    2.9589280893
H        2.3265297854   -0.5507836504   -1.1289969640
H        0.0110169477   -0.5824081841   -0.1507159195
H        4.2812751956   -1.1252793835    0.2775517812
H        1.6144263906   -1.8783693625    3.6047654057
H        2.9030938074   -3.2755334311    5.2116498011
H        4.6184776900   -3.4710205532    5.5833364678
H        3.6097815263   -2.4287675220    6.6037027629
H        5.0172295172   -1.0347790493    5.0790923098
H        3.3240397475   -0.8146121800    4.6647735293
19   
torsion grid (120,)
C        2.2209718669   -0.7358368911   -0.0788008012
C        0.9089639625   -0.7362883051    0.4041674821
C        3.2786410851   -1.1823006917    0.7187756011
C        1.7141564274   -1.6875739769    2.5039565337
C        0.6904376046   -1.2106340801    1.6944986837
C        3.0300271348   -1.6600648988    2.0147733290
C        3.9213918544   -2.6985272132    5.7003577292
C        4.0911494003   -1.6056814197    4.6467284579
F       -0.5795540337   -1.2305533112    2.1795527101
S        4.4029371937   -2.2959400373    2.9598255258
H        2.4233411631   -0.3664809120   -1.0804795656
H        0.0743647419   -0.3818104070   -0.1921509166
H        4.2978822031   -1.1490369006    0.3459809870
H        1.4732094610   -2.0854992810    3.4846017785
H        3.0488609571   -3.3234446257    5.4867948425
H        4.7983922876   -3.3519419686    5.7367908165
H        3.7930914113   -2.2497660528    6.6923861924
H        4.9489489488   -0.9703563617    4.8852082764
H        3.2133722820   -0.9595103716    4.5879345319
19   
torsion grid (135,)
C        1.8882274696   -1.3369801696   -0.0195493668
C        0.6999067190   -0.7943929233    0.4809371426
C        2.9936931265   -1.5342297033    0.8109669202
C        1.7539049043   -0.6020336817    2.6777146913
C        0.6657173785   -0.4444241147    1.8267592119
C        2.9321580468   -1.1686617358    2.1660998213
C        4.5214613246   -3.0527377884    5.3658095752
C        3.7284657308   -1.8741069610    4.8003885792
F       -0.4743435938    0.0949009535    2.3347706917
S        4.3997627441   -1.3820966739    3.1520488468
H        1.9461227531   -1.6257252373   -1.0654951314
H       -0.1753935055   -0.6448323601   -0.1429290822
H        3.8999614117   -1.9843968779    0.4166031804
H        1.6727608676   -0.2674962918    3.7065779617
H        4.4307351578   -3.9289544748    4.7182664133
H        5.5847238391   -2.8114068092    5.4642395235
H        4.1447642227   -3.3128540955    6.3616806718
H        3.7668553340   -1.0124589148    5.4719644925
H        2.6818074712   -2.1536937633    4.6612551025
19   
torsion grid (150,)
C        1.8692453921   -1.2372707512   -0.0712551745
C        0.7071080909   -0.6756814542    0.4702257726
C        2.9603252206   -1.5527582290    0.7395147055
C        1.7619151508   -0.7152708965    2.6759607672
C        0.6873250443   -0.4331082124    1.8388038302
C        2.9136519701   -1.2943464653    2.1209220278
C        4.5823898218   -2.9761745387    5.4939305155
C        3.6958576672   -1.9677239896    4.7619841176
F       -0.4257826241    0.1196958624    2.3907108882
S        4.3661230264   -1.6748065487    3.0736418561
H        1.9172835834   -1.4446071292   -1.1368307685
H       -0.1572119330   -0.4331221441   -0.1394366821
H        3.8451084959   -2.0115904153    0.3073878636
H        1.6861377505   -0.4653334156    3.7284357730
H        4.5860373857   -3.9399307841    4.9777004057
H        5.6164925585   -2.6242286911    5.5674554322
H        4.2090221716   -3.1281879748    6.5124556303
H        3.6442833528   -1.0205225634    5.3060278532
H        2.6824198226   -2.3634212864    4.6569270436
19   
torsion grid (165,)
C        1.8671190280   -1.1346647003   -0.1220328610
C        0.7256365789   -0.5562878103    0.4470834889
C        2.9213225937   -1.5791939719    0.6746845542
C        1.7261883063   -0.8585061352    2.6590879337
C        0.6900574752   -0.4373287145    1.8305216428
C        2.8588719390   -1.4446698097    2.0743432465
C        4.6255597432   -2.8711757784    5.5770127179
C        3.6519816821   -2.0548567619    4.7255535370
F       -0.4029968375    0.1245274207    2.4130370999
S        4.2660128318   -2.0107781337    2.9987602797
H        1.9289939635   -1.2468511807   -1.2010767962
H       -0.1093082979   -0.2097974953   -0.1531036223
H        3.7923046217   -2.0388467368    0.2154701809
H        1.6293261339   -0.7105682112    3.7282851148
H        4.6884955784   -3.9036992677    5.2222005016
H        5.6318584776   -2.4407812878    5.5595097991
H        4.2851355318   -2.8848827149    6.6175162404
H        3.5605038229   -1.0344851039    5.1090848829
H        2.6623111343   -2.5204409897    4.7297889058
19   
torsion grid (180,)
C        1.8954318395   -1.0378972154   -0.1340585983
C        0.7696882312   -0.4391212606    0.4461537557
C        2.8905503609   -1.6127431168    0.6541954830
C        1.6586735040   -1.0056111484    2.6544525676
C        0.6865966776   -0.4421127038    1.8321601469
C        2.7798807782   -1.6012016901    2.0578828532
C        4.6763253752   -2.7635146819    5.6110561286
C        3.6042655761   -2.1428200436    4.7139621155
F       -0.3941115020    0.1312767857    2.4265580191
S        4.1029227276   -2.3607069250    2.9662517885
H        1.9950211036   -1.0546573312   -1.2159782814
H       -0.0168339829    0.0143420910   -0.1480684476
H        3.7562786637   -2.0722691701    0.1847042270
H        1.5158719620   -0.9653269902    3.7276661526
H        4.7861418720   -3.8345372482    5.4163673751
H        5.6485818208   -2.2854869430    5.4582166028
H        4.3974424490   -2.6364708246    6.6619377754
H        3.4968643162   -1.0749820154    4.9261936578
H        2.6389142574   -2.6316775920    4.8753090274
