18   
torsion grid (-165,)
C        1.8419992589   -0.3115157055    1.5536639308
C       -0.5267583955   -0.4592540661    1.9779347444
C        2.0553146704   -0.9029352521    2.7946663129
C        0.5247685983   -0.0854042231    1.1439921958
C        0.9277820399   -1.2460075051    3.5652258501
C       -0.2856987925   -0.5867925582    6.3571383046
C        0.2329565964   -1.9342449794    5.7736947387
N       -0.3091699713   -1.0387853660    3.1653043026
O        1.1782570302   -1.8575653503    4.7717164071
F       -1.3012615690   -0.0607317596    5.6309546560
F        0.7479119029    0.3022675672    6.3741902291
F        0.8823354153   -2.5506900059    6.7978810157
F       -0.8206668254   -2.7152082277    5.4387195399
Cl       3.6692031021   -1.1991873290    3.3695900773
Br       0.1691779195    0.7313966432   -0.5444447808
H        2.6841454934   -0.0304979980    0.9304665071
H       -1.5622442074   -0.2975941287    1.6913000488
H       -0.6307556370   -0.7526199893    7.3812785813
18   
torsion grid (-150,)
C        1.7787636290   -0.6757146500    1.3720204363
C       -0.5346599173   -0.5199037732    2.0342537359
C        2.0680550187   -1.1455380460    2.6487239826
C        0.4520283008   -0.3575916654    1.0647929137
C        1.0028800843   -1.2739388213    3.5599228207
C       -0.4182681382   -0.6424374876    6.2778038204
C        0.3468296988   -1.9150285662    5.7806286132
N       -0.2432164841   -0.9759330803    3.2593076652
O        1.3182983981   -1.7338604518    4.8140893229
F       -1.6407397762   -0.5170715828    5.7137382640
F        0.3257162398    0.4635494540    5.9927875203
F        1.0403848865   -2.3737797247    6.8578370318
F       -0.5394567017   -2.8770599930    5.4340121880
Cl       3.6974854990   -1.5548000574    3.0980885607
Br      -0.0018553089    0.2977445084   -0.6700678230
H        2.5711524218   -0.5608338537    0.6402333889
H       -1.5753253917   -0.2827039376    1.8315014523
H       -0.5390287818   -0.7122299736    7.3621818542
18   
torsion grid (-135,)
C        1.7996914133   -0.6314799829    1.3884000515
C       -0.5160979103   -0.4870009213    2.0442886603
C        2.0838839477   -1.1182146599    2.6602464497
C        0.4741624631   -0.3106714722    1.0803924639
C        1.0163370905   -1.2597606667    3.5655699105
C       -0.3991980898   -0.6330300328    6.2669841364
C        0.3298608693   -1.9294813036    5.7581072712
N       -0.2299800278   -0.9585297250    3.2642604465
O        1.3254049815   -1.7370830984    4.8160366484
F       -1.7007529247   -0.6210678692    5.8955733285
F        0.2150137306    0.4755004341    5.7667642749
F        0.9813749641   -2.4492102529    6.8325947595
F       -0.5698401431   -2.8492317301    5.3465723451
Cl       3.7121363648   -1.5323762683    3.1105129966
Br       0.0253455166    0.3674455548   -0.6471446556
H        2.5950206878   -0.5063989173    0.6614807353
H       -1.5559901084   -0.2476175157    1.8401682195
H       -0.3426351923   -0.5986618308    7.3579351743
18   
torsion grid (-120,)
C        1.4959914306   -0.2369233068    1.4835392636
C       -0.6599877684   -1.3134061325    1.4826409035
C        1.6238396322   -0.5920957442    2.8224500641
C        0.3311734659   -0.6069720160    0.8053074812
C        0.5701572005   -1.3085137968    3.4195980731
C       -0.6048017721   -3.7571108537    4.9466656243
C       -0.2831610367   -2.2924043488    5.4258136645
N       -0.5267924936   -1.6521980168    2.7717429791
O        0.7311320298   -1.6484459757    4.7407845675
F       -0.3924376034   -4.6309745319    5.9637063092
F        0.1974325681   -4.1116795395    3.9060782949
F       -1.4421546209   -1.5743025653    5.3806024830
F        0.1031558721   -2.3102796402    6.7156130521
Cl       3.0475216793   -0.1626791707    3.7231773970
Br       0.1021228681   -0.1529661434   -1.0346239357
H        2.2878589405    0.3139426117    0.9874949759
H       -1.5774855347   -1.6163625847    0.9859585676
H       -1.6457403648   -3.8197830773    4.6258828599
18   
torsion grid (-105,)
C        1.4844793268   -0.2398147276    1.4661033707
C       -0.6254327155   -1.4014249575    1.4811595690
C        1.6324702303   -0.5786902572    2.8071269685
C        0.3330263774   -0.6606874149    0.7941676820
C        0.6110382056   -1.3323843043    3.4142635889
C       -0.6322155301   -3.7155027603    4.8932064115
C       -0.2284023000   -2.2967678319    5.4280920716
N       -0.4733973082   -1.7255225913    2.7724878343
O        0.7872418708   -1.6616754320    4.7342613442
F       -0.7422150363   -4.5791270055    5.9351162264
F        0.3188430012   -4.1854414629    4.0382367818
F       -1.3566521646   -1.5276912116    5.4491402192
F        0.2016146911   -2.3855652122    6.6998145213
Cl       3.0398289316   -0.0846883265    3.6993398643
Br       0.0775511647   -0.2287379915   -1.0474067947
H        2.2514073882    0.3390645078    0.9628240580
H       -1.5318445124   -1.7448863846    0.9907477997
H       -1.5842178255   -3.6576842644    4.3661011948
18   
torsion grid (-90,)
C        1.4239652954   -0.1765799314    1.4831799996
C       -0.6533832712   -1.3976814708    1.4954839717
C        1.5939424648   -0.5355290881    2.8160006480
C        0.2775054872   -0.6176765990    0.8149805705
C        0.5994748542   -1.3286366953    3.4195714213
C       -0.6564262032   -3.6983296720    4.8839931894
C       -0.1946899004   -2.3186148450    5.4487405376
N       -0.4789381608   -1.7409081800    2.7797356577
O        0.8009564647   -1.6766888819    4.7293062377
F       -1.0201083817   -4.4992441412    5.9202180736
F        0.3764090699   -4.2877967278    4.2175648868
F       -1.2997979778   -1.5255560846    5.5569198454
F        0.3117044841   -2.4724563593    6.6858808742
Cl       2.9945085562   -0.0176702568    3.7044226228
Br      -0.0087491314   -0.1579579576   -1.0148055499
H        2.1691271554    0.4331415730    0.9835477258
H       -1.5545576529   -1.7575018796    1.0071362357
H       -1.4986981240   -3.5741118983    4.2059825267
18   
torsion grid (-75,)
C        1.3944033500   -0.0926177004    1.5772144626
C       -0.6641502240   -1.3437651563    1.5412936434
C        1.5781127169   -0.5104895732    2.8907315554
C        0.2505819049   -0.5180585503    0.8942271543
C        0.5985699084   -1.3465635075    3.4616278945
C       -0.6587992355   -3.7486882880    4.9255208686
C       -0.1739482095   -2.3852866932    5.4882017846
N       -0.4760392243   -1.7457800610    2.8068750978
O        0.8187368767   -1.7535121670    4.7507546645
F       -1.2821334543   -4.4284722657    5.9260466943
F        0.4248466135   -4.4685181984    4.5175809749
F       -1.2601417823   -1.5768852079    5.6299249006
F        0.3702191234   -2.5684822017    6.7060945199
Cl       2.9752874156   -0.0122111701    3.7951254281
Br      -0.0537954869    0.0251216758   -0.9093712987
H        2.1271897256    0.5516229733    1.1032918661
H       -1.5628864531   -1.6937871986    1.0414218739
H       -1.3445991157   -3.6128747226    4.0920050339
18   
torsion grid (-60,)
C        1.3896707581   -0.0582239396    1.6296668940
C       -0.6575566060   -1.3263843298    1.5581481315
C        1.5871294549   -0.5311284681    2.9228015821
C        0.2433741359   -0.4639515675    0.9394007647
C        0.6213067447   -1.4007799580    3.4660620827
C       -0.6413431347   -3.8192040281    4.9827729692
C       -0.1523784283   -2.4417150084    5.4953593760
N       -0.4543202104   -1.7834924065    2.8021652961
O        0.8605123720   -1.8667553951    4.7330294315
F       -1.5344901100   -4.3171248101    5.8832992291
F        0.4284827648   -4.6611894717    4.9240492330
F       -1.2173887798   -1.6057527012    5.5947854753
F        0.3876014207   -2.5906285736    6.7198932516
Cl       2.9862414832   -0.0568467682    3.8367671374
Br      -0.0845615145    0.1561908306   -0.8348893432
H        2.1121627514    0.6134927760    1.1785802038
H       -1.5577647660   -1.6623610587    1.0512591119
H       -1.1111837713   -3.7437948669    4.0039644590
18   
torsion grid (-45,)
C        1.3503900988   -0.0398503136    1.5561000578
C       -0.6854106670   -1.3279156241    1.5055285667
C        1.5771703010   -0.5291466875    2.8386498523
C        0.1948815693   -0.4468375022    0.8826433827
C        0.6308808534   -1.4157844333    3.3878709263
C       -0.5967822605   -3.8369337189    4.9650122251
C       -0.1167554050   -2.4381682230    5.4365112310
N       -0.4528644162   -1.8013255333    2.7379643971
O        0.8981971639   -1.9020238302    4.6425501915
F       -1.7030238007   -4.1813971586    5.6837139312
F        0.3851157629   -4.7402581130    5.2369727908
F       -1.1710348668   -1.5919596687    5.5095122564
F        0.4344054203   -2.5450848978    6.6602735407
Cl       2.9883937259   -0.0524892694    3.7326555255
Br      -0.1748253087    0.1970240791   -0.8749211243
H        2.0570242966    0.6460885054    1.1012768038
H       -1.5918749239   -1.6657149054    1.0111141709
H       -0.8356419367   -3.8491113605    3.9031346037
18   
torsion grid (-30,)
C        1.3254217685   -0.0439089670    1.5287501574
C       -0.7255554214   -1.3094258097    1.5256599441
C        1.5709026754   -0.5261643385    2.8104724185
C        0.1529277614   -0.4429817773    0.8800112164
C        0.6242377814   -1.3965655027    3.3841634551
C       -0.5587282021   -3.8388202075    4.9360440054
C       -0.1055370700   -2.4288895420    5.4310581020
N       -0.4758506324   -1.7749589894    2.7577121394
O        0.9044894156   -1.8742432054    4.6391612384
F       -1.8220335415   -4.0837050663    5.3811283718
F        0.2687465650   -4.7741550462    5.4774892867
F       -1.1643298150   -1.5935605757    5.5141574541
F        0.4509403172   -2.5346390960    6.6521588343
Cl       3.0049125382   -0.0610805961    3.6742474265
Br      -0.2419712865    0.1919487784   -0.8753876585
H        2.0311946951    0.6302782288    1.0553773450
H       -1.6447347751   -1.6412040617    1.0510746677
H       -0.5411486899   -3.9131413335    3.8505716195
18   
torsion grid (-15,)
C        1.1672072827   -0.0642435145    1.3612952928
C       -0.8702131332   -1.3435983239    1.4877590556
C        1.4697169724   -0.4964649544    2.6487568036
C       -0.0267393436   -0.4952874208    0.7747113058
C        0.5537745608   -1.3508633742    3.2914830256
C       -0.5631940506   -3.7650129413    4.8842500467
C       -0.0981206659   -2.3464766622    5.3746142807
N       -0.5674384283   -1.7600875603    2.7253166563
O        0.8812440806   -1.7795201061    4.5522644601
F       -1.9053224835   -3.8936784720    5.0556469852
F        0.0538103344   -4.7169638440    5.6375014286
F       -1.1533114328   -1.5131033637    5.5007445307
F        0.4983946649   -2.4503557813    6.5761428194
Cl       2.9340646379    0.0093096459    3.4357020771
Br      -0.4977054714    0.0714434090   -0.9855368190
H        1.8473022067    0.5969803212    0.8350404935
H       -1.8048147825   -1.7002401858    1.0642093592
H       -0.3208437214   -3.9269282888    3.8358623137
18   
torsion grid (0,)
C        1.2025841711   -0.0395925451    1.4385565078
C       -0.8111389095   -1.3604362330    1.5414855038
C        1.5100783454   -0.4832031919    2.7210399179
C        0.0184315632   -0.4860410962    0.8434202382
C        0.6081429462   -1.3627247432    3.3485719609
C       -0.5556462154   -3.7804722649    4.8649464068
C       -0.0444202368   -2.3924172508    5.4097090530
N       -0.5024755031   -1.7863409241    2.7739871444
O        0.9357535767   -1.8059821464    4.6041627156
F       -1.9045854870   -3.7647344504    4.7356023008
F       -0.2286039114   -4.7563132820    5.7579735646
F       -1.0776729623   -1.5399438606    5.5940165495
F        0.5661326693   -2.5674551424    6.5957796851
Cl       2.9624593991    0.0390120383    3.5197427657
Br      -0.4591271109    0.0967684083   -0.9097463686
H        1.8709100134    0.6417491332    0.9229651286
H       -1.7375186420   -1.7297960234    1.1107968481
H       -0.1025350221   -4.0193738618    3.9035356260
18   
torsion grid (15,)
C        1.2766842080   -0.0391320250    1.5117437452
C       -0.7109845262   -1.4026725174    1.5220272662
C        1.6324286354   -0.6220624528    2.7239368476
C        0.0843593496   -0.4419478204    0.9022328930
C        0.7663551661   -1.5867793290    3.2725648549
C       -0.9918762913   -3.0937188038    5.3369864361
C        0.5092378358   -3.3054354323    4.9223549538
N       -0.3625817913   -1.9537942043    2.6930792127
O        1.1276280136   -2.1348753295    4.4769555048
F       -1.0695766567   -3.0063597931    6.6932255758
F       -1.7395225743   -4.1483099822    4.9233038573
F        1.2286935419   -3.6799509839    5.9968014018
F        0.6149106945   -4.2874518346    3.9990214357
Cl       3.1044142839   -0.1712459213    3.5299140262
Br      -0.4509082558    0.3170273025   -0.7645563213
H        1.9197354839    0.7061770261    1.0559722153
H       -1.6441075133   -1.7383996546    1.0785410318
H       -1.3985356477   -2.1827228892    4.9016414126
18   
torsion grid (30,)
C        1.3182670062   -0.0310634027    1.5465301469
C       -0.6902072192   -1.3628288527    1.5137254852
C        1.6447380658   -0.6318582577    2.7582708456
C        0.1294977559   -0.4092706431    0.9151498346
C        0.7553692151   -1.5873799126    3.2859451997
C       -1.0005474964   -3.1299018984    5.3668282097
C        0.4837987287   -3.3243910769    4.9224729787
N       -0.3700408135   -1.9301666230    2.6853357883
O        1.0930577780   -2.1467075673    4.4929196506
F       -1.0191473324   -2.7334645767    6.6679413658
F       -1.6677262797   -4.3091091900    5.2496187621
F        1.2178844598   -3.7241199403    5.9807571864
F        0.5677963963   -4.2932550863    3.9818753439
Cl       3.1114072061   -0.2125917220    3.5896953590
Br      -0.3683473966    0.3737896626   -0.7519464779
H        1.9803740241    0.7080040395    1.1081947864
H       -1.6212986853   -1.6791866300    1.0520477277
H       -1.5036505859   -2.3830307561    4.7550446758
18   
torsion grid (45,)
C        1.3480837952   -0.0345024447    1.5701400528
C       -0.6896266904   -1.3184716580    1.5249740960
C        1.6586455826   -0.6481086645    2.7795827326
C        0.1529751514   -0.3811488039    0.9328535283
C        0.7446785145   -1.5841918476    3.3004691961
C       -1.0106539413   -3.1798157827    5.3659236346
C        0.4685601082   -3.3386819891    4.9228412911
N       -0.3866827035   -1.8978367718    2.6952991530
O        1.0666625817   -2.1523678928    4.5075131194
F       -1.0387435744   -2.5004093612    6.5447154571
F       -1.5515895337   -4.4160130571    5.5478107144
F        1.2032076460   -3.7458438117    5.9783282236
F        0.5558016804   -4.2966174771    3.9680107457
Cl       3.1337776741   -0.2683044700    3.6150267717
Br      -0.3218337015    0.4215883659   -0.7316742385
H        2.0283705172    0.6909120193    1.1369665159
H       -1.6263690579   -1.6109359240    1.0589824414
H       -1.5944138514   -2.6438194328    4.6191596588
18   
torsion grid (60,)
C        1.3139514893    0.0164764064    1.5522056397
C       -0.7270571996   -1.2634652297    1.5126871890
C        1.6450663161   -0.6289761219    2.7391498782
C        0.1058912397   -0.3121867858    0.9298021769
C        0.7392965212   -1.5766700659    3.2540713572
C       -1.0070855715   -3.2039131030    5.2772250301
C        0.4761394224   -3.3525894525    4.8564766081
N       -0.4030262976   -1.8736921824    2.6617358118
O        1.0850330351   -2.1746225145    4.4388221563
F       -1.0867101787   -2.2669429661    6.2628009420
F       -1.4366901141   -4.3997573222    5.7674295817
F        1.1987123300   -3.7554823393    5.9203368352
F        0.5646145833   -4.3141296574    3.9011768160
Cl       3.1363001861   -0.2731467604    3.5560207837
Br      -0.3995940498    0.5348451843   -0.7033296486
H        1.9872770787    0.7520364225    1.1252693214
H       -1.6729279841   -1.5422099431    1.0568385364
H       -1.6335097659   -2.9101615641    4.4368333621
18   
torsion grid (75,)
C        1.3459651823   -0.0124707072    1.6284369082
C       -0.6783328972   -1.3161630978    1.5610213792
C        1.6939756691   -0.6901139656    2.7919604023
C        0.1372509542   -0.3354927161    1.0037813033
C        0.8040789607   -1.6660650188    3.2817802277
C       -1.0051865594   -3.2105753180    5.2380874424
C        0.4924245541   -3.4269781331    4.8890593982
N       -0.3365997253   -1.9608137938    2.6862800030
O        1.1698321049   -2.3016979764    4.4385882311
F       -1.1350490883   -2.0349353345    5.9161580807
F       -1.4075257670   -4.2268834559    6.0500244408
F        1.1623457646   -3.8078824721    5.9926751974
F        0.5731113881   -4.4346784034    3.9772058984
Cl       3.1845324114   -0.3386124004    3.6119422819
Br      -0.3920833688    0.5599397068   -0.5958578311
H        2.0062360189    0.7459235728    1.2215863461
H       -1.6240582685   -1.5921261339    1.1032727346
H       -1.6240708366   -3.1894866774    4.3438131207
18   
torsion grid (90,)
C        1.2723532049    0.0755008215    1.6504280227
C       -0.7226228107   -1.2731364089    1.5755992461
C        1.6583209065   -0.6329863749    2.7831325436
C        0.0590999200   -0.2542824141    1.0383225912
C        0.8009880229   -1.6455930148    3.2545249679
C       -0.9936153734   -3.1883948711    5.1811043868
C        0.5054283974   -3.4345708920    4.8200288068
N       -0.3433831506   -1.9485795182    2.6698985728
O        1.2014555867   -2.3163752186    4.3794271284
F       -1.1528312339   -1.8980075986    5.5924610155
F       -1.3327421184   -4.0022610968    6.2170431363
F        1.1810703291   -3.8533468595    5.9035715922
F        0.5542456153   -4.4231395483    3.8824587257
Cl       3.1556128165   -0.2743927380    3.5888006595
Br      -0.5228551549    0.6849789183   -0.5176178427
H        1.9065025758    0.8632624482    1.2580969521
H       -1.6705290514   -1.5552184125    1.1261686093
H       -1.6407154908   -3.3840209349    4.3284501564
18   
torsion grid (105,)
C        1.2899955605    0.0685290624    1.6825500267
C       -0.6781980227   -1.3169962528    1.5530427220
C        1.6673449161   -0.6483460711    2.8132056114
C        0.0946764104   -0.2761200329    1.0446183228
C        0.8203447106   -1.6819228652    3.2545610519
C       -0.9946439054   -3.1819080088    5.2085684254
C        0.4928713543   -3.4740731251    4.7981305264
N       -0.3067887650   -1.9998028064    2.6446151492
O        1.2118137866   -2.3637004675    4.3777422476
F       -1.1772209300   -1.8401136744    5.3657475193
F       -1.2481903924   -3.7633215694    6.4113092093
F        1.1814087874   -3.9596594524    5.8439661748
F        0.4838827377   -4.4250341285    3.8211110325
Cl       3.1419279188   -0.2720369251    3.6529023893
Br      -0.4768801619    0.6744494369   -0.5086111621
H        1.9161001103    0.8734846724    1.3128487670
H       -1.6120832251   -1.6101522725    1.0817718023
H       -1.6863629991   -3.5596449808    4.4563371138
18   
torsion grid (120,)
C        1.2717417584    0.1347517579    1.7223372991
C       -0.6622451116   -1.2850025330    1.4964874596
C        1.6344564891   -0.6116986068    2.8386830551
C        0.1007763838   -0.2118303091    1.0423684039
C        0.7976125989   -1.6756479973    3.2237639885
C       -0.9826149044   -3.1952173238    5.2839152767
C        0.4650851427   -3.4993373857    4.7420638748
N       -0.3054374383   -1.9962613063    2.5740518022
O        1.1820787438   -2.3853958233    4.3346384811
F       -1.2500925194   -1.8624039133    5.2025766310
F       -1.0537320568   -3.5332694687    6.5986869319
F        1.2088083111   -4.0602828602    5.7115735700
F        0.3614797828   -4.4015841742    3.7267159369
Cl       3.0790838195   -0.2323549614    3.7287230449
Br      -0.4512506679    0.7798330334   -0.4926381141
H        1.8902359961    0.9640211703    1.3962411812
H       -1.5773344514   -1.5813087916    0.9913474454
H       -1.7300837365   -3.7501471612    4.7152522176
18   
torsion grid (135,)
C        1.2610019547    0.2020034956    1.7730674122
C       -0.6341641603   -1.2423715038    1.4204590873
C        1.5974515593   -0.5809042555    2.8724350612
C        0.1229352380   -0.1380073244    1.0365430834
C        0.7675824201   -1.6748891680    3.1835443837
C       -0.9549847550   -3.2081485476    5.3847684722
C        0.4199336545   -3.5263899450    4.6937224619
N       -0.3027928703   -1.9896371629    2.4812744932
O        1.1386289226   -2.4199799702    4.2783930388
F       -1.3726829305   -1.9532627087    5.0683109362
F       -0.8082315966   -3.2608341063    6.7349852672
F        1.2193863927   -4.1516154741    5.5812364220
F        0.1973637778   -4.3978831442    3.6734921182
Cl       3.0005815813   -0.2083151209    3.8301581085
Br      -0.3917996851    0.9037148404   -0.4784420254
H        1.8743097482    1.0550135012    1.5034580594
H       -1.5242978222   -1.5356158720    0.8707310009
H       -1.7127951955   -3.9293021991    5.0713450441
18   
torsion grid (150,)
C        1.7134175509   -0.3069282042    1.4267921438
C       -0.6255347069   -0.6070474056    1.9213680905
C        1.9981141123   -0.8071460845    2.6932988577
C        0.3748152463   -0.2060992979    1.0385831198
C        0.9184441966   -1.1865806306    3.5138516696
C       -0.2062385768   -0.6361145838    6.4537858368
C        0.3345169929   -1.9213658344    5.7519677973
N       -0.3400015827   -1.0920166523    3.1362521980
O        1.2549253844   -1.6990909447    4.7473659383
F       -0.3514453654    0.3761364595    5.5574028895
F        0.6797780029   -0.2346652407    7.4031013637
F        0.9946219584   -2.6514901869    6.6792576625
F       -0.7245539476   -2.6677825934    5.3449168025
Cl       3.6434059824   -0.9489097284    3.2389034215
Br      -0.0805117774    0.4766108576   -0.6852091294
H        2.5184311926   -0.0018472731    0.7669422710
H       -1.6761993256   -0.5409289776    1.6522129928
H       -1.1716180232   -0.8405292402    6.9235128274
18   
torsion grid (165,)
C        1.5524186103   -0.2958031076    1.5535674156
C       -0.7182285679   -1.0881808635    1.7360597221
C        1.7986259757   -0.8664937173    2.8002689968
C        0.2676679073   -0.4090084338    1.0194227987
C        0.7417914507   -1.5327084442    3.4438777762
C        0.0758981570   -0.5826152401    6.3001762698
C        0.2200526827   -2.0246848413    5.7483766454
N       -0.4648586554   -1.6467850304    2.9246963327
O        1.0326039953   -2.1556918775    4.6454292539
F       -0.2797507415    0.2696626781    5.2964501085
F        1.2648130489   -0.1743114670    6.8139689681
F        0.8006607777   -2.7727124407    6.7156781704
F       -1.0305571449   -2.5205720351    5.5558224061
Cl       3.3674431201   -0.7348996488    3.5370406370
Br      -0.1394323428    0.3591564898   -0.6800715864
H        2.3413664241    0.2286839916    1.0254006867
H       -1.7269399992   -1.1936802582    1.3457396367
H       -0.6871769317   -0.5492449615    7.0822674470
18   
torsion grid (180,)
C        1.5728958943   -0.2346449173    1.5932832106
C       -0.7074089098   -1.0133872547    1.7059702418
C        1.7890743428   -0.8434153043    2.8283500404
C        0.2988328215   -0.3206403852    1.0306658080
C        0.7127772439   -1.5156348882    3.4314348989
C        0.0438696249   -0.5273050170    6.2259428414
C        0.1551274321   -1.9871414176    5.7220529358
N       -0.4833379926   -1.6066024359    2.8828802269
O        0.9642410216   -2.1735585461    4.6243986777
F       -0.5883490959    0.2445134318    5.2968875050
F        1.2932222268   -0.0269519720    6.4189008724
F        0.7228323823   -2.7110349615    6.7169456451
F       -1.1028763377   -2.4629740965    5.5374518837
Cl       3.3477613878   -0.7566100721    3.5914999653
Br      -0.0669903285    0.4999464138   -0.6534883200
H        2.3773424520    0.2962084085    1.0957856983
H       -1.7079887143   -1.1005476028    1.2909952552
H       -0.5144324122   -0.4884265406    7.1650648162
