
  -OEChem-05262117483D

 67 70  0     1  0  0  0  0  0999 V2000
    7.7001   -4.4214   -0.8708 C   0  0  0  0  0  0  0  0  0  0  0  0
    6.5079   -3.7036   -0.7709 C   0  0  0  0  0  0  0  0  0  0  0  0
    3.3984   -2.9590   -2.6814 C   0  0  0  0  0  0  0  0  0  0  0  0
    3.6637   -2.7831   -0.2920 C   0  0  0  0  0  0  0  0  0  0  0  0
    2.2064   -2.2410   -2.6004 C   0  0  0  0  0  0  0  0  0  0  0  0
    2.4693   -2.0771   -0.2079 C   0  0  0  0  0  0  0  0  0  0  0  0
    7.8478   -5.4203   -1.8362 C   0  0  0  0  0  0  0  0  0  0  0  0
    5.5672   -5.0210   -2.5679 C   0  0  0  0  0  0  0  0  0  0  0  0
    0.8307    0.5774   -3.1460 C   0  0  0  0  0  0  0  0  0  0  0  0
   -1.8297    0.3895   -3.9371 C   0  0  0  0  0  0  0  0  0  0  0  0
    4.1541   -3.2386   -1.5311 C   0  0  0  0  0  0  0  0  0  0  0  0
    5.4267   -3.9925   -1.6234 C   0  0  0  0  0  0  0  0  0  0  0  0
    1.7222   -1.7844   -1.3630 C   0  0  0  0  0  0  0  0  0  0  0  0
   -0.0408   -0.2800   -2.4604 C   0  0  0  0  0  0  0  0  0  0  0  0
   -1.3824   -0.3875   -2.8670 C   0  0  0  0  0  0  0  0  0  0  0  0
    6.7740   -5.7186   -2.6866 C   0  0  0  0  0  0  0  0  0  0  0  0
    0.3787    1.3525   -4.2120 C   0  0  0  0  0  0  0  0  0  0  0  0
   -0.9728    1.2700   -4.6024 C   0  0  0  0  0  0  0  0  0  0  0  0
    0.4425   -1.0372   -1.2773 C   0  0  0  0  0  0  0  0  0  0  0  0
   -1.5880    0.3446    1.1549 C   0  0  0  0  0  0  0  0  0  0  0  0
   -2.2856   -1.3420   -2.1333 C   0  0  0  0  0  0  0  0  0  0  0  0
   -2.5970   -0.8841   -0.7008 C   0  0  1  0  0  0  0  0  0  0  0  0
   -3.2140   -2.0222    0.1207 C   0  0  0  0  0  0  0  0  0  0  0  0
   -0.5988    1.0237    3.2831 C   0  0  0  0  0  0  0  0  0  0  0  0
    1.6059    1.8237   -6.1803 C   0  0  0  0  0  0  0  0  0  0  0  0
   -1.5121    3.4246   -5.4327 C   0  0  0  0  0  0  0  0  0  0  0  0
    7.8669   -5.0582   -5.6444 C   0  0  0  0  0  0  0  0  0  0  0  0
   -0.1771   -1.0688   -0.1377 N   0  0  0  0  0  0  0  0  0  0  0  0
   -1.3795   -0.3277   -0.0604 N   0  0  0  0  0  0  0  0  0  0  0  0
    6.8979   -6.7555   -3.6591 N   0  0  0  0  0  0  0  0  0  0  0  0
   -0.4695    0.4911    1.9351 N   0  0  0  0  0  0  0  0  0  0  0  0
   -2.6882    0.8230    1.4431 O   0  0  0  0  0  0  0  0  0  0  0  0
    7.1666   -7.6050   -6.0042 O   0  0  0  0  0  0  0  0  0  0  0  0
    5.3582   -5.8645   -5.4989 O   0  0  0  0  0  0  0  0  0  0  0  0
    1.2618    2.2088   -4.8384 O   0  0  0  0  0  0  0  0  0  0  0  0
   -1.4662    2.0030   -5.6583 O   0  0  0  0  0  0  0  0  0  0  0  0
    6.7043   -6.4026   -5.3117 S   0  0  0  0  0  0  0  0  0  0  0  0
    8.5303   -4.1863   -0.2103 H   0  0  0  0  0  0  0  0  0  0  0  0
    6.4249   -2.8998   -0.0457 H   0  0  0  0  0  0  0  0  0  0  0  0
    3.7538   -3.2887   -3.6536 H   0  0  0  0  0  0  0  0  0  0  0  0
    4.2110   -3.0109    0.6184 H   0  0  0  0  0  0  0  0  0  0  0  0
    1.6444   -2.0390   -3.5065 H   0  0  0  0  0  0  0  0  0  0  0  0
    2.0950   -1.7534    0.7572 H   0  0  0  0  0  0  0  0  0  0  0  0
    8.7865   -5.9624   -1.9291 H   0  0  0  0  0  0  0  0  0  0  0  0
    4.7384   -5.3017   -3.2065 H   0  0  0  0  0  0  0  0  0  0  0  0
    1.8733    0.6640   -2.8551 H   0  0  0  0  0  0  0  0  0  0  0  0
   -2.8627    0.3339   -4.2706 H   0  0  0  0  0  0  0  0  0  0  0  0
   -3.2333   -1.4656   -2.6648 H   0  0  0  0  0  0  0  0  0  0  0  0
   -1.8149   -2.3319   -2.0961 H   0  0  0  0  0  0  0  0  0  0  0  0
   -3.2934   -0.0447   -0.7369 H   0  0  0  0  0  0  0  0  0  0  0  0
   -2.4973   -2.8415    0.2407 H   0  0  0  0  0  0  0  0  0  0  0  0
   -4.1033   -2.4156   -0.3845 H   0  0  0  0  0  0  0  0  0  0  0  0
   -3.5133   -1.6620    1.1071 H   0  0  0  0  0  0  0  0  0  0  0  0
    0.3894    1.3237    3.6422 H   0  0  0  0  0  0  0  0  0  0  0  0
   -1.0305    0.2970    3.9843 H   0  0  0  0  0  0  0  0  0  0  0  0
   -1.2490    1.8992    3.2594 H   0  0  0  0  0  0  0  0  0  0  0  0
    2.3071    2.5780   -6.5424 H   0  0  0  0  0  0  0  0  0  0  0  0
    0.7213    1.7966   -6.8239 H   0  0  0  0  0  0  0  0  0  0  0  0
    2.0928    0.8407   -6.1807 H   0  0  0  0  0  0  0  0  0  0  0  0
   -1.9360    3.8593   -6.3397 H   0  0  0  0  0  0  0  0  0  0  0  0
   -0.5122    3.8299   -5.2537 H   0  0  0  0  0  0  0  0  0  0  0  0
   -2.1613    3.6501   -4.5785 H   0  0  0  0  0  0  0  0  0  0  0  0
    7.7205   -4.7684   -6.6863 H   0  0  0  0  0  0  0  0  0  0  0  0
    7.6366   -4.2249   -4.9795 H   0  0  0  0  0  0  0  0  0  0  0  0
    8.8816   -5.4261   -5.4869 H   0  0  0  0  0  0  0  0  0  0  0  0
    7.6998   -7.3700   -3.5352 H   0  0  0  0  0  0  0  0  0  0  0  0
    0.2886   -0.1485    1.7297 H   0  0  0  0  0  0  0  0  0  0  0  0
  1  2  1  0  0  0  0
  1  7  2  0  0  0  0
  1 38  1  0  0  0  0
  2 12  2  0  0  0  0
  2 39  1  0  0  0  0
  3  5  2  0  0  0  0
  3 11  1  0  0  0  0
  3 40  1  0  0  0  0
  4  6  1  0  0  0  0
  4 11  2  0  0  0  0
  4 41  1  0  0  0  0
  5 13  1  0  0  0  0
  5 42  1  0  0  0  0
  6 13  2  0  0  0  0
  6 43  1  0  0  0  0
  7 16  1  0  0  0  0
  7 44  1  0  0  0  0
  8 12  1  0  0  0  0
  8 16  2  0  0  0  0
  8 45  1  0  0  0  0
  9 14  2  0  0  0  0
  9 17  1  0  0  0  0
  9 46  1  0  0  0  0
 10 15  2  0  0  0  0
 10 18  1  0  0  0  0
 10 47  1  0  0  0  0
 11 12  1  0  0  0  0
 13 19  1  0  0  0  0
 14 15  1  0  0  0  0
 14 19  1  0  0  0  0
 15 21  1  0  0  0  0
 16 30  1  0  0  0  0
 17 18  2  0  0  0  0
 17 35  1  0  0  0  0
 18 36  1  0  0  0  0
 19 28  2  0  0  0  0
 20 29  1  0  0  0  0
 20 31  1  0  0  0  0
 20 32  2  0  0  0  0
 21 22  1  0  0  0  0
 21 48  1  0  0  0  0
 21 49  1  0  0  0  0
 22 23  1  0  0  0  0
 22 29  1  0  0  0  0
 22 50  1  0  0  0  0
 23 51  1  0  0  0  0
 23 52  1  0  0  0  0
 23 53  1  0  0  0  0
 24 31  1  0  0  0  0
 24 54  1  0  0  0  0
 24 55  1  0  0  0  0
 24 56  1  0  0  0  0
 25 35  1  0  0  0  0
 25 57  1  0  0  0  0
 25 58  1  0  0  0  0
 25 59  1  0  0  0  0
 26 36  1  0  0  0  0
 26 60  1  0  0  0  0
 26 61  1  0  0  0  0
 26 62  1  0  0  0  0
 27 37  1  0  0  0  0
 27 63  1  0  0  0  0
 27 64  1  0  0  0  0
 27 65  1  0  0  0  0
 28 29  1  0  0  0  0
 30 37  1  0  0  0  0
 30 66  1  0  0  0  0
 31 67  1  0  0  0  0
 33 37  2  0  0  0  0
 34 37  2  0  0  0  0
M  END
$$$$
