
  -OEChem-05262117483D

 53 56  0     1  0  0  0  0  0999 V2000
   -1.7918    0.9379   -0.1267 C   0  0  0  0  0  0  0  0  0  0  0  0
   -2.8312    0.0496    0.1512 C   0  0  0  0  0  0  0  0  0  0  0  0
    1.3507   -5.2104   -0.7538 C   0  0  0  0  0  0  0  0  0  0  0  0
    0.5050   -3.3761   -2.1115 C   0  0  0  0  0  0  0  0  0  0  0  0
    0.0406   -5.5901   -0.4523 C   0  0  0  0  0  0  0  0  0  0  0  0
   -0.8028   -3.7441   -1.8029 C   0  0  0  0  0  0  0  0  0  0  0  0
   -1.2477   -1.6996    0.8380 C   0  0  0  0  0  0  0  0  0  0  0  0
   -0.1910   -0.8124    0.5624 C   0  0  0  0  0  0  0  0  0  0  0  0
    1.2396   -0.9169    0.6474 C   0  0  0  0  0  0  0  0  0  0  0  0
   -0.4798    0.4970    0.0764 C   0  0  0  0  0  0  0  0  0  0  0  0
   -2.5360   -1.2396    0.6234 C   0  0  0  0  0  0  0  0  0  0  0  0
    1.5704   -4.1022   -1.5720 C   0  0  0  0  0  0  0  0  0  0  0  0
   -1.0229   -4.8470   -0.9713 C   0  0  0  0  0  0  0  0  0  0  0  0
    1.7609    0.2903    0.2300 C   0  0  0  0  0  0  0  0  0  0  0  0
    0.8499    4.9118    0.4578 C   0  0  0  0  0  0  0  0  0  0  0  0
    2.1063   -2.0822    1.0241 C   0  0  0  0  0  0  0  0  0  0  0  0
    3.2209    0.6073    0.1006 C   0  0  0  0  0  0  0  0  0  0  0  0
    4.0749   -0.5579    0.6531 C   0  0  0  0  0  0  0  0  0  0  0  0
    3.4771   -1.9395    0.3299 C   0  0  2  0  0  0  0  0  0  0  0  0
    0.9456    7.0953    1.3615 C   0  0  0  0  0  0  0  0  0  0  0  0
    0.7522    3.4391    0.7926 C   0  0  0  0  0  0  0  0  0  0  0  0
    0.8679    2.5592   -0.4578 C   0  0  0  0  0  0  0  0  0  0  0  0
    0.7301    1.1488   -0.1401 N   0  0  0  0  0  0  0  0  0  0  0  0
    3.4278   -2.0650   -1.1414 N   0  0  0  0  0  0  0  0  0  0  0  0
    0.8974    5.3687   -0.6694 O   0  0  0  0  0  0  0  0  0  0  0  0
    4.1530   -4.4797   -1.2022 O   0  0  0  0  0  0  0  0  0  0  0  0
    3.3512   -3.2673   -3.3230 O   0  0  0  0  0  0  0  0  0  0  0  0
    0.8722    5.6677    1.5770 O   0  0  0  0  0  0  0  0  0  0  0  0
   -3.5825   -2.0738    0.8818 F   0  0  0  0  0  0  0  0  0  0  0  0
    3.2543   -3.5530   -1.8918 S   0  0  0  0  0  0  0  0  0  0  0  0
   -2.6631   -5.2912   -0.5605 Cl  0  0  0  0  0  0  0  0  0  0  0  0
   -2.0117    1.9362   -0.4943 H   0  0  0  0  0  0  0  0  0  0  0  0
   -3.8689    0.3354    0.0118 H   0  0  0  0  0  0  0  0  0  0  0  0
    2.1970   -5.7592   -0.3532 H   0  0  0  0  0  0  0  0  0  0  0  0
    0.6879   -2.5283   -2.7648 H   0  0  0  0  0  0  0  0  0  0  0  0
   -0.1533   -6.4484    0.1830 H   0  0  0  0  0  0  0  0  0  0  0  0
   -1.6426   -3.1777   -2.1905 H   0  0  0  0  0  0  0  0  0  0  0  0
   -1.0815   -2.7072    1.2046 H   0  0  0  0  0  0  0  0  0  0  0  0
    2.2724   -2.1231    2.1090 H   0  0  0  0  0  0  0  0  0  0  0  0
    1.6296   -3.0264    0.7545 H   0  0  0  0  0  0  0  0  0  0  0  0
    3.4755    0.7950   -0.9518 H   0  0  0  0  0  0  0  0  0  0  0  0
    3.4802    1.5295    0.6349 H   0  0  0  0  0  0  0  0  0  0  0  0
    5.0890   -0.4935    0.2506 H   0  0  0  0  0  0  0  0  0  0  0  0
    4.1420   -0.4731    1.7429 H   0  0  0  0  0  0  0  0  0  0  0  0
    4.1594   -2.7174    0.6785 H   0  0  0  0  0  0  0  0  0  0  0  0
    0.9533    7.5379    2.3570 H   0  0  0  0  0  0  0  0  0  0  0  0
    0.0784    7.4380    0.7926 H   0  0  0  0  0  0  0  0  0  0  0  0
    1.8576    7.3504    0.8174 H   0  0  0  0  0  0  0  0  0  0  0  0
   -0.2032    3.2615    1.2983 H   0  0  0  0  0  0  0  0  0  0  0  0
    1.5292    3.1876    1.5216 H   0  0  0  0  0  0  0  0  0  0  0  0
    0.1043    2.8376   -1.1873 H   0  0  0  0  0  0  0  0  0  0  0  0
    1.8304    2.7217   -0.9463 H   0  0  0  0  0  0  0  0  0  0  0  0
    2.8329   -1.3781   -1.6013 H   0  0  0  0  0  0  0  0  0  0  0  0
  1  2  1  0  0  0  0
  1 10  2  0  0  0  0
  1 32  1  0  0  0  0
  2 11  2  0  0  0  0
  2 33  1  0  0  0  0
  3  5  2  0  0  0  0
  3 12  1  0  0  0  0
  3 34  1  0  0  0  0
  4  6  1  0  0  0  0
  4 12  2  0  0  0  0
  4 35  1  0  0  0  0
  5 13  1  0  0  0  0
  5 36  1  0  0  0  0
  6 13  2  0  0  0  0
  6 37  1  0  0  0  0
  7  8  2  0  0  0  0
  7 11  1  0  0  0  0
  7 38  1  0  0  0  0
  8  9  1  0  0  0  0
  8 10  1  0  0  0  0
  9 14  2  0  0  0  0
  9 16  1  0  0  0  0
 10 23  1  0  0  0  0
 11 29  1  0  0  0  0
 12 30  1  0  0  0  0
 13 31  1  0  0  0  0
 14 17  1  0  0  0  0
 14 23  1  0  0  0  0
 15 21  1  0  0  0  0
 15 25  2  0  0  0  0
 15 28  1  0  0  0  0
 16 19  1  0  0  0  0
 16 39  1  0  0  0  0
 16 40  1  0  0  0  0
 17 18  1  0  0  0  0
 17 41  1  0  0  0  0
 17 42  1  0  0  0  0
 18 19  1  0  0  0  0
 18 43  1  0  0  0  0
 18 44  1  0  0  0  0
 19 24  1  0  0  0  0
 19 45  1  0  0  0  0
 20 28  1  0  0  0  0
 20 46  1  0  0  0  0
 20 47  1  0  0  0  0
 20 48  1  0  0  0  0
 21 22  1  0  0  0  0
 21 49  1  0  0  0  0
 21 50  1  0  0  0  0
 22 23  1  0  0  0  0
 22 51  1  0  0  0  0
 22 52  1  0  0  0  0
 24 30  1  0  0  0  0
 24 53  1  0  0  0  0
 26 30  2  0  0  0  0
 27 30  2  0  0  0  0
M  END
$$$$
