49
0 1 C20H22O6S
C                    -3.555526792737    -0.561076780236     1.692874193198
C                     2.699941907595    -2.433684975851    -0.667051104929
C                    -2.182259600714    -0.373325584325     1.845067384648
C                     1.863300487073    -1.783453699770     0.237533796010
C                    -3.343518425703    -0.088042334685    -0.652368008989
C                     1.561528853439     0.036356659875    -1.362127096262
C                    -1.962055596338     0.104933454287    -0.535591574020
C                    -4.160229810071    -0.412317017531     0.439718792478
C                     2.988210388758    -1.872994902445    -1.915271023267
C                     2.400472972718    -0.642912220788    -2.264524108732
C                     1.304012013594    -0.558457633507    -0.117757831149
C                    -1.392185610686    -0.035025572811     0.744602538455
C                     1.008091296583     1.390937387482    -1.732114255026
C                    -1.188861390936     0.329340469826    -1.817112233217
C                    -5.652059658863    -0.566823835248     0.268960286442
C                     5.928907241670    -2.575555364575    -1.228216453555
C                     5.708805442580    -0.713204898765    -2.927887049590
C                     1.618404407284     0.017859095847    -4.427302209188
C                     3.940704449009    -2.567296083090    -2.864656003361
C                     5.428589223486    -2.190983589750    -2.626261585285
O                     1.704721386132     2.340667581620    -1.984977753901
O                     0.587709745364     1.745162992442     0.976576661104
O                     0.612819595601    -0.355180293566     2.422644291321
O                    -0.351180676956     1.498270734503    -1.821527894242
O                     3.730469069052    -3.979932636100    -2.705166453028
O                     2.703361096181    -0.119677537900    -3.498873974872
S                     0.341373901387     0.308487389864     1.138176384940
H                    -4.158316659826    -0.822790016529     2.559119104536
H                     3.134551822193    -3.394218687878    -0.415297364749
H                    -1.710250134377    -0.492554512244     2.814772732589
H                     1.662281971806    -2.196585517912     1.220084931324
H                    -3.800283857673     0.016832878358    -1.634555255594
H                    -0.600870049211    -0.560801258830    -2.057803883649
H                    -1.898500000433     0.487457704897    -2.631332193069
H                    -6.155431743942     0.398518721763     0.399208038581
H                    -5.906208021173    -0.938133905288    -0.727927952876
H                    -6.068278633351    -1.257008625747     1.007964600975
H                     5.474390585299    -1.944679226525    -0.457751199153
H                     5.704898818281    -3.619671680383    -0.989878593940
H                     7.013573576324    -2.438817370365    -1.167611491568
H                     5.202213282424    -0.057817304068    -2.212672796164
H                     6.783201363052    -0.514534062318    -2.856789911126
H                     5.371925356401    -0.429940608353    -3.928807905009
H                     2.076389656226     0.256799175003    -5.388326262110
H                     0.943446013675     0.832245619517    -4.149264475084
H                     1.060591211075    -0.922952821842    -4.509740424918
H                     3.686303600376    -2.269927267350    -3.888591675272
H                     5.989382708702    -2.788597754462    -3.362701951565
H                     4.401028587137    -4.435886384314    -3.238188824064
