41
0 1 C15ClH18N3O3S
C                    -2.778478219286    -0.193809655836     1.408377221517
C                    -1.719014891226    -1.476421690113     3.154476492490
C                    -4.016052790804    -0.732492138068     1.749037421600
C                    -2.953734001348    -2.025406046113     3.508206814040
C                    -2.042406758315     1.650619551679     5.436011214329
C                    -0.097775395869     1.074609221221     4.874231829635
C                    -1.620147056631    -0.563476434842     2.100559587193
C                    -4.093943839680    -1.646633524340     2.801376013531
C                     1.255542090484     0.969098566892    -0.180783895294
C                    -0.136228131967     1.354845284461    -0.605453729293
C                     0.062508274828     0.152869818599     0.292814298615
C                     0.227214729275    -4.081645406755    -0.426228223841
C                    -0.355553696881     1.559784166759     2.390120652486
C                     0.393438959214    -2.777393485381     0.353078645107
C                    -0.294721172818     0.120284440659     1.789331784351
N                    -0.879952855389     1.137009612692     5.942058882887
N                    -2.021301879961     1.909474040386     4.134971075826
N                    -0.754205834803     1.539478869879     3.782195998517
O                     0.722442983461    -1.294863931358    -1.839684488226
O                    -1.626687898626    -1.569256650501    -0.921862372823
O                     0.741506788271    -0.601486090861     2.479602809568
S                    -0.186158203171    -1.398789895737    -0.678743127229
Cl                   -5.651432843165    -2.328001391701     3.240838604862
H                    -2.724650503920     0.503520191197     0.579148721741
H                    -0.832314026255    -1.757554851603     3.710502154539
H                    -4.909386611646    -0.452795126486     1.200497357494
H                    -3.028014638160    -2.730312186773     4.330018360739
H                    -2.921010968541     1.842145707308     6.038167555754
H                     0.916381181734     0.702748462917     4.839302614703
H                     1.889979485326     0.516916539831    -0.934965467322
H                     1.764044077653     1.595720945684     0.546588347425
H                    -0.592017612991     2.240738513881    -0.178948724603
H                    -0.411689244023     1.157976418128    -1.636669636057
H                    -0.822288213655    -4.255916157190    -0.673981040343
H                     0.811062015470    -4.069733183234    -1.349473225588
H                     0.577602883982    -4.910327557519     0.196121953868
H                     0.618687927446     2.049728904003     2.306212737015
H                    -1.101150829195     2.165238446396     1.878532747247
H                     1.437173156159    -2.565138262469     0.593799336784
H                    -0.200047273998    -2.760166618714     1.266513553344
H                     1.591164491771    -0.289262588179     2.127313305269
