50
0 1 C15H25NO8S
C                     0.754810472684    -0.146909817386     1.405477161066
C                     0.871165777846    -0.361592476706    -1.518703504882
C                    -1.683703462177    -0.109811986618     0.455957177282
C                    -2.510728642676     0.209884879431     1.700279043992
C                    -1.404989106216     2.251871857341     2.079740242279
C                    -0.403318205603     2.030999713818     0.956439928332
C                    -0.295332086741     0.552237292982     0.504074181527
C                     1.591847707176    -1.293351458221     4.097990399600
C                     0.090596815958    -3.162157848959     3.313996872686
C                     2.210090543670    -2.668345233772     2.042241998991
C                     1.030529950221    -1.973237089632    -4.057676319706
C                     2.298331251015     0.068828391717    -4.827093797939
C                     3.279163872754    -1.386883143908    -3.013111637339
C                     1.080881706869    -2.078485573696     2.888858822692
C                     1.994102742844    -0.857759062630    -3.651016031928
N                     0.269055358420     0.693023805067    -0.841428018896
O                     1.884764401581     0.285748322323     1.511116453083
O                     0.944408930986    -1.477149493990    -1.029796484148
O                    -0.823555206775     2.238480879855    -2.666971251603
O                     1.318767157011     2.974358037537    -1.551267260641
O                    -2.652341819525     1.622705178644     1.869894601337
O                    -0.836598715921     2.750639629719    -0.228561532902
O                     0.235793676130    -1.194607953813     2.041984162687
O                     1.314212544634     0.059798204871    -2.701459069241
S                     0.053902657442     2.265308836201    -1.515101279190
H                    -1.570228987167    -1.187351627187     0.327075543738
H                    -2.209465045623     0.287760471041    -0.416646925389
H                    -3.524277920636    -0.181894897557     1.592430283659
H                    -2.060217487366    -0.232396427230     2.599302001400
H                    -0.934614178323     1.888713926276     3.008807865543
H                    -1.597424166038     3.321507273166     2.187968925390
H                     0.583384875273     2.401781257536     1.249466628096
H                     2.296508500113    -0.516225990030     3.800404234905
H                     0.757240867194    -0.833458001550     4.637237180534
H                     2.099221059898    -1.979762013976     4.783397873493
H                    -0.304274483087    -3.686234357538     2.439028729035
H                    -0.747133481926    -2.727005829351     3.867352835708
H                     0.590202577492    -3.890298335278     3.959332423468
H                     1.807705457410    -3.105714320681     1.124891406941
H                     2.947064272952    -1.911692716385     1.772455423501
H                     2.709380021277    -3.455263835344     2.616784899876
H                     0.808342801330    -2.634946013033    -3.219308770749
H                     0.095881809305    -1.548620443235    -4.436366766094
H                     1.485191278350    -2.565402507110    -4.858174883821
H                     2.941319996120     0.893930552815    -4.509070401900
H                     1.374489041035     0.489141816662    -5.233587050930
H                     2.808335080150    -0.490843137270    -5.616489123485
H                     3.899695390100    -0.556258108431    -2.664012452482
H                     3.065311730607    -2.047848758540    -2.172199158757
H                     3.846879117596    -1.946790246713    -3.763125478448
