
  -OEChem-05262117483D

 39 41  0     1  0  0  0  0  0999 V2000
    3.3701    0.4197   -5.3110 C   0  0  0  0  0  0  0  0  0  0  0  0
    3.5928   -0.1479   -4.0504 C   0  0  0  0  0  0  0  0  0  0  0  0
    2.4512    1.4631   -5.4665 C   0  0  0  0  0  0  0  0  0  0  0  0
    2.8968    0.3226   -2.9351 C   0  0  0  0  0  0  0  0  0  0  0  0
    1.7440    1.9430   -4.3605 C   0  0  0  0  0  0  0  0  0  0  0  0
   -3.2593   -1.5404    0.4742 C   0  0  0  0  0  0  0  0  0  0  0  0
   -2.7396    0.4497    0.9201 C   0  0  0  0  0  0  0  0  0  0  0  0
    1.9793    1.3618   -3.1128 C   0  0  0  0  0  0  0  0  0  0  0  0
    0.7319   -0.6776    0.4224 C   0  0  0  0  0  0  0  0  0  0  0  0
    1.5792   -2.3549    2.1232 C   0  0  0  0  0  0  0  0  0  0  0  0
    2.4271   -1.1308    2.2292 C   0  0  0  0  0  0  0  0  0  0  0  0
    0.9393   -0.9921    1.8635 C   0  0  0  0  0  0  0  0  0  0  0  0
    0.0015   -0.4330    2.9182 C   0  0  0  0  0  0  0  0  0  0  0  0
   -0.2676    0.7325   -1.4411 C   0  0  0  0  0  0  0  0  0  0  0  0
   -0.3570    0.3573    0.0392 C   0  0  1  0  0  0  0  0  0  0  0  0
   -3.7616   -0.3882    1.0125 N   0  0  0  0  0  0  0  0  0  0  0  0
   -2.0000   -1.4620    0.0587 N   0  0  0  0  0  0  0  0  0  0  0  0
   -1.6749   -0.1718    0.3564 N   0  0  0  0  0  0  0  0  0  0  0  0
    1.4114   -1.1756   -0.4631 O   0  0  0  0  0  0  0  0  0  0  0  0
    1.9381    1.9238   -0.5058 O   0  0  0  0  0  0  0  0  0  0  0  0
    0.4114    3.2373   -2.0790 O   0  0  0  0  0  0  0  0  0  0  0  0
    1.0660    1.9744   -1.6948 S   0  0  0  0  0  0  0  0  0  0  0  0
    3.9171    0.0492   -6.1739 H   0  0  0  0  0  0  0  0  0  0  0  0
    4.3096   -0.9560   -3.9347 H   0  0  0  0  0  0  0  0  0  0  0  0
    2.2872    1.9058   -6.4450 H   0  0  0  0  0  0  0  0  0  0  0  0
    3.0517   -0.1061   -1.9511 H   0  0  0  0  0  0  0  0  0  0  0  0
    1.0350    2.7601   -4.4498 H   0  0  0  0  0  0  0  0  0  0  0  0
   -3.8302   -2.4557    0.3874 H   0  0  0  0  0  0  0  0  0  0  0  0
   -2.7179    1.4824    1.2448 H   0  0  0  0  0  0  0  0  0  0  0  0
    1.7157   -2.9910    1.2555 H   0  0  0  0  0  0  0  0  0  0  0  0
    1.2670   -2.8557    3.0348 H   0  0  0  0  0  0  0  0  0  0  0  0
    2.7056   -0.7642    3.2126 H   0  0  0  0  0  0  0  0  0  0  0  0
    3.1358   -0.9302    1.4334 H   0  0  0  0  0  0  0  0  0  0  0  0
    0.3714   -0.6923    3.9144 H   0  0  0  0  0  0  0  0  0  0  0  0
   -1.0074   -0.8444    2.8270 H   0  0  0  0  0  0  0  0  0  0  0  0
   -0.0608    0.6599    2.8782 H   0  0  0  0  0  0  0  0  0  0  0  0
   -1.1832    1.2154   -1.7852 H   0  0  0  0  0  0  0  0  0  0  0  0
   -0.0437   -0.1456   -2.0466 H   0  0  0  0  0  0  0  0  0  0  0  0
   -0.2136    1.2446    0.6610 H   0  0  0  0  0  0  0  0  0  0  0  0
  1  2  1  0  0  0  0
  1  3  2  0  0  0  0
  1 23  1  0  0  0  0
  2  4  2  0  0  0  0
  2 24  1  0  0  0  0
  3  5  1  0  0  0  0
  3 25  1  0  0  0  0
  4  8  1  0  0  0  0
  4 26  1  0  0  0  0
  5  8  2  0  0  0  0
  5 27  1  0  0  0  0
  6 16  1  0  0  0  0
  6 17  2  0  0  0  0
  6 28  1  0  0  0  0
  7 16  2  0  0  0  0
  7 18  1  0  0  0  0
  7 29  1  0  0  0  0
  8 22  1  0  0  0  0
  9 12  1  0  0  0  0
  9 15  1  0  0  0  0
  9 19  2  0  0  0  0
 10 11  1  0  0  0  0
 10 12  1  0  0  0  0
 10 30  1  0  0  0  0
 10 31  1  0  0  0  0
 11 12  1  0  0  0  0
 11 32  1  0  0  0  0
 11 33  1  0  0  0  0
 12 13  1  0  0  0  0
 13 34  1  0  0  0  0
 13 35  1  0  0  0  0
 13 36  1  0  0  0  0
 14 15  1  0  0  0  0
 14 22  1  0  0  0  0
 14 37  1  0  0  0  0
 14 38  1  0  0  0  0
 15 18  1  0  0  0  0
 15 39  1  0  0  0  0
 17 18  1  0  0  0  0
 20 22  2  0  0  0  0
 21 22  2  0  0  0  0
M  END
$$$$
