
  -OEChem-05262117483D

 34 34  0     1  0  0  0  0  0999 V2000
    7.8290   -0.5944   -1.9514 C   0  0  0  0  0  0  0  0  0  0  0  0
    6.6926   -0.6944    0.1176 C   0  0  0  0  0  0  0  0  0  0  0  0
    8.5267   -0.7859   -3.2764 C   0  0  0  0  0  0  0  0  0  0  0  0
   -0.7971   -0.7569    2.1684 C   0  0  0  0  0  0  0  0  0  0  0  0
   11.4685   -1.2730   -4.5627 C   0  0  0  0  0  0  0  0  0  0  0  0
    0.6250   -1.0397    2.6646 C   0  0  0  0  0  0  0  0  0  0  0  0
    1.6959   -0.7128    1.6168 C   0  0  0  0  0  0  0  0  0  0  0  0
    3.1188   -1.0132    2.1078 C   0  0  0  0  0  0  0  0  0  0  0  0
   10.1963   -2.1228   -4.5015 C   0  0  0  0  0  0  0  0  0  0  0  0
    4.1624   -0.6771    1.0461 C   0  0  0  0  0  0  0  0  0  0  0  0
    7.5615    0.5918   -1.4693 N   0  0  0  0  0  0  0  0  0  0  0  0
    6.9112    0.5291   -0.2644 N   0  0  0  0  0  0  0  0  0  0  0  0
    9.3834   -1.8525   -3.3133 N   0  0  0  0  0  0  0  0  0  0  0  0
    8.2917   -0.0559   -4.2300 O   0  0  0  0  0  0  0  0  0  0  0  0
    5.8884   -2.6716    1.6902 O   0  0  0  0  0  0  0  0  0  0  0  0
    7.2819   -1.9312   -0.9570 S   0  0  0  0  0  0  0  0  0  0  0  0
    5.8425   -1.1557    1.6572 S   0  0  1  0  0  0  0  0  0  0  0  0
   -0.9208    0.2991    1.9022 H   0  0  0  0  0  0  0  0  0  0  0  0
   -1.0310   -1.3526    1.2787 H   0  0  0  0  0  0  0  0  0  0  0  0
   -1.5410   -0.9969    2.9353 H   0  0  0  0  0  0  0  0  0  0  0  0
   11.2152   -0.2099   -4.5834 H   0  0  0  0  0  0  0  0  0  0  0  0
   12.1136   -1.4619   -3.6977 H   0  0  0  0  0  0  0  0  0  0  0  0
   12.0372   -1.5099   -5.4682 H   0  0  0  0  0  0  0  0  0  0  0  0
    0.7117   -2.0956    2.9512 H   0  0  0  0  0  0  0  0  0  0  0  0
    0.8196   -0.4577    3.5747 H   0  0  0  0  0  0  0  0  0  0  0  0
    1.6187    0.3458    1.3345 H   0  0  0  0  0  0  0  0  0  0  0  0
    1.4987   -1.2905    0.7039 H   0  0  0  0  0  0  0  0  0  0  0  0
    3.2014   -2.0738    2.3692 H   0  0  0  0  0  0  0  0  0  0  0  0
    3.3219   -0.4396    3.0209 H   0  0  0  0  0  0  0  0  0  0  0  0
   10.4370   -3.1903   -4.4993 H   0  0  0  0  0  0  0  0  0  0  0  0
    9.5659   -1.9237   -5.3702 H   0  0  0  0  0  0  0  0  0  0  0  0
    4.2114    0.3928    0.8203 H   0  0  0  0  0  0  0  0  0  0  0  0
    4.0002   -1.2404    0.1220 H   0  0  0  0  0  0  0  0  0  0  0  0
    9.6883   -2.2499   -2.4330 H   0  0  0  0  0  0  0  0  0  0  0  0
  1  3  1  0  0  0  0
  1 11  2  0  0  0  0
  1 16  1  0  0  0  0
  2 12  2  0  0  0  0
  2 16  1  0  0  0  0
  2 17  1  0  0  0  0
  3 13  1  0  0  0  0
  3 14  2  0  0  0  0
  4  6  1  0  0  0  0
  4 18  1  0  0  0  0
  4 19  1  0  0  0  0
  4 20  1  0  0  0  0
  5  9  1  0  0  0  0
  5 21  1  0  0  0  0
  5 22  1  0  0  0  0
  5 23  1  0  0  0  0
  6  7  1  0  0  0  0
  6 24  1  0  0  0  0
  6 25  1  0  0  0  0
  7  8  1  0  0  0  0
  7 26  1  0  0  0  0
  7 27  1  0  0  0  0
  8 10  1  0  0  0  0
  8 28  1  0  0  0  0
  8 29  1  0  0  0  0
  9 13  1  0  0  0  0
  9 30  1  0  0  0  0
  9 31  1  0  0  0  0
 10 17  1  0  0  0  0
 10 32  1  0  0  0  0
 10 33  1  0  0  0  0
 11 12  1  0  0  0  0
 13 34  1  0  0  0  0
 15 17  2  0  0  0  0
M  END
$$$$
