49
0 1 C16H25N5O2S
C                     0.290706347655    -6.529738089434    -0.427226670110
C                     0.290873006726    -4.235015287234     0.337639693607
C                    -2.214548708208    -2.234724430757     3.597233852262
C                     0.723158605678    -0.872236626141     1.870602598111
C                    -1.635513886570     0.038090863554     2.565518598006
C                     0.672532645275    -2.398961827816     1.858691268900
C                    -3.805634738874    -3.876376487215     2.522574861923
C                    -2.453350814990    -4.513881226008     4.454372301151
C                    -3.298534711473    -5.113003963820     1.780667232499
C                    -1.969838443705    -5.741539932074     3.683241251858
C                    -0.519084536529    -2.011556605367    -0.343590481844
C                    -2.543044267240    -1.196985324766     2.496966182788
C                    -0.590416418003    -0.176978920646     1.453155530320
C                    -1.376765032218    -1.021747772859     0.436411127988
C                     0.147539104341    -7.847293795765    -1.122019403466
C                    -2.595299553692    -7.410953228266     2.046149358846
N                     0.761290739763    -6.380246210058     0.771783376624
N                     0.768939393082    -5.083813030141     1.225073437263
N                     0.220140698906    -2.897203396960     0.547483524762
N                    -2.820809533291    -3.448510459907     3.516941423663
N                    -2.994492309635    -6.184070047277     2.729747988614
O                    -1.428492374442    -1.941813821890     4.507667087439
O                    -2.352254202404    -1.765775534903     1.183793413164
S                    -0.215034043572    -5.006542113455    -1.174402951889
H                     1.016173123783    -0.551946536563     2.874242339579
H                     1.519294008440    -0.549413740972     1.189215632744
H                    -2.223758106208     0.934465484818     2.347390206570
H                    -1.192312171402     0.142509782964     3.555511383096
H                     1.667574564138    -2.809028921434     2.050649714683
H                     0.021717533270    -2.784161571945     2.645805158030
H                    -4.010050338995    -3.080140752454     1.812810530505
H                    -4.734293906125    -4.132495785921     3.049502000510
H                    -3.334794108577    -4.775321734949     5.053662888683
H                    -1.676185976014    -4.132919630408     5.115337460691
H                    -4.079730145093    -5.461236134151     1.095183631172
H                    -2.418698470866    -4.829441746639     1.175637898038
H                    -1.016710984791    -5.506585462208     3.179355150495
H                    -1.781837015766    -6.553995440477     4.393924504795
H                    -1.176933535520    -2.608554098709    -0.979911371840
H                     0.158541127184    -1.451619238918    -1.004814276746
H                    -3.599315937039    -0.915988823291     2.594495400127
H                    -0.333900612104     0.788060941709     1.006726622642
H                    -1.898836403678    -0.376219813243    -0.284134665212
H                    -0.901781293618    -8.067441950778    -1.347190122263
H                     0.705473021746    -7.869258380707    -2.064147591257
H                     0.536192232488    -8.626921081514    -0.463530369930
H                    -3.398410893242    -7.730926695243     1.373132214792
H                    -2.437010193149    -8.204370485826     2.784133361508
H                    -1.667131177136    -7.298919443503     1.461669769386
