
  -OEChem-05262117483D

 49 52  0     1  0  0  0  0  0999 V2000
    3.9002   -4.1993   -5.5760 C   0  0  0  0  0  0  0  0  0  0  0  0
    2.5087   -3.0575   -3.9630 C   0  0  0  0  0  0  0  0  0  0  0  0
   -2.6558   -0.3799    0.0009 C   0  0  0  0  0  0  0  0  0  0  0  0
    1.6545   -0.1723   -1.7356 C   0  0  0  0  0  0  0  0  0  0  0  0
   -0.7751    0.6176   -1.4094 C   0  0  0  0  0  0  0  0  0  0  0  0
    2.5800   -0.9872   -2.6438 C   0  0  0  0  0  0  0  0  0  0  0  0
   -4.0366    1.6215   -0.7190 C   0  0  0  0  0  0  0  0  0  0  0  0
   -4.2963    0.6422    1.5026 C   0  0  0  0  0  0  0  0  0  0  0  0
   -5.5589    1.7006   -0.8411 C   0  0  0  0  0  0  0  0  0  0  0  0
   -5.8108    0.7369    1.3428 C   0  0  0  0  0  0  0  0  0  0  0  0
    0.6670   -2.6082   -2.4111 C   0  0  0  0  0  0  0  0  0  0  0  0
   -1.9551   -0.3806   -1.3637 C   0  0  1  0  0  0  0  0  0  0  0  0
    0.2508   -0.0697   -2.3384 C   0  0  2  0  0  0  0  0  0  0  0  0
   -0.3564   -1.4836   -2.5698 C   0  0  2  0  0  0  0  0  0  0  0  0
    4.9306   -4.6835   -6.5477 C   0  0  0  0  0  0  0  0  0  0  0  0
   -7.6206    2.0133    0.3731 C   0  0  0  0  0  0  0  0  0  0  0  0
    2.8107   -4.8380   -5.2810 N   0  0  0  0  0  0  0  0  0  0  0  0
    2.0102   -4.2073   -4.3620 N   0  0  0  0  0  0  0  0  0  0  0  0
    1.9130   -2.2173   -3.0745 N   0  0  0  0  0  0  0  0  0  0  0  0
   -3.6567    0.5427    0.1893 N   0  0  0  0  0  0  0  0  0  0  0  0
   -6.1738    1.8594    0.4746 N   0  0  0  0  0  0  0  0  0  0  0  0
   -2.2986   -1.1538    0.8846 O   0  0  0  0  0  0  0  0  0  0  0  0
   -1.3714   -1.6545   -1.5814 O   0  0  0  0  0  0  0  0  0  0  0  0
    4.0658   -2.6640   -4.7067 S   0  0  0  0  0  0  0  0  0  0  0  0
    1.5921   -0.6371   -0.7459 H   0  0  0  0  0  0  0  0  0  0  0  0
    2.0908    0.8214   -1.5900 H   0  0  0  0  0  0  0  0  0  0  0  0
   -1.0779    1.6053   -1.7667 H   0  0  0  0  0  0  0  0  0  0  0  0
   -0.3619    0.7346   -0.4032 H   0  0  0  0  0  0  0  0  0  0  0  0
    2.8374   -0.3927   -3.5314 H   0  0  0  0  0  0  0  0  0  0  0  0
    3.5201   -1.2182   -2.1223 H   0  0  0  0  0  0  0  0  0  0  0  0
   -3.6032    1.4693   -1.7058 H   0  0  0  0  0  0  0  0  0  0  0  0
   -3.6583    2.5765   -0.3277 H   0  0  0  0  0  0  0  0  0  0  0  0
   -3.9254    1.5373    2.0205 H   0  0  0  0  0  0  0  0  0  0  0  0
   -4.0164   -0.2364    2.0822 H   0  0  0  0  0  0  0  0  0  0  0  0
   -5.8225    2.5647   -1.4610 H   0  0  0  0  0  0  0  0  0  0  0  0
   -5.9249    0.7908   -1.3568 H   0  0  0  0  0  0  0  0  0  0  0  0
   -6.1935   -0.2228    0.9452 H   0  0  0  0  0  0  0  0  0  0  0  0
   -6.2647    0.8941    2.3270 H   0  0  0  0  0  0  0  0  0  0  0  0
    0.8344   -2.7964   -1.3440 H   0  0  0  0  0  0  0  0  0  0  0  0
    0.3158   -3.5330   -2.8639 H   0  0  0  0  0  0  0  0  0  0  0  0
   -2.6640   -0.1741   -2.1779 H   0  0  0  0  0  0  0  0  0  0  0  0
    0.3172    0.4561   -3.2970 H   0  0  0  0  0  0  0  0  0  0  0  0
   -0.8028   -1.5336   -3.5737 H   0  0  0  0  0  0  0  0  0  0  0  0
    5.0596   -3.9825   -7.3794 H   0  0  0  0  0  0  0  0  0  0  0  0
    5.9055   -4.8163   -6.0662 H   0  0  0  0  0  0  0  0  0  0  0  0
    4.6016   -5.6455   -6.9462 H   0  0  0  0  0  0  0  0  0  0  0  0
   -7.8571    2.8871   -0.2426 H   0  0  0  0  0  0  0  0  0  0  0  0
   -8.0434    2.1761    1.3695 H   0  0  0  0  0  0  0  0  0  0  0  0
   -8.1185    1.1317   -0.0727 H   0  0  0  0  0  0  0  0  0  0  0  0
  1 15  1  0  0  0  0
  1 17  2  0  0  0  0
  1 24  1  0  0  0  0
  2 18  2  0  0  0  0
  2 19  1  0  0  0  0
  2 24  1  0  0  0  0
  3 12  1  0  0  0  0
  3 20  1  0  0  0  0
  3 22  2  0  0  0  0
  4  6  1  0  0  0  0
  4 13  1  0  0  0  0
  4 25  1  0  0  0  0
  4 26  1  0  0  0  0
  5 12  1  0  0  0  0
  5 13  1  0  0  0  0
  5 27  1  0  0  0  0
  5 28  1  0  0  0  0
  6 19  1  0  0  0  0
  6 29  1  0  0  0  0
  6 30  1  0  0  0  0
  7  9  1  0  0  0  0
  7 20  1  0  0  0  0
  7 31  1  0  0  0  0
  7 32  1  0  0  0  0
  8 10  1  0  0  0  0
  8 20  1  0  0  0  0
  8 33  1  0  0  0  0
  8 34  1  0  0  0  0
  9 21  1  0  0  0  0
  9 35  1  0  0  0  0
  9 36  1  0  0  0  0
 10 21  1  0  0  0  0
 10 37  1  0  0  0  0
 10 38  1  0  0  0  0
 11 14  1  0  0  0  0
 11 19  1  0  0  0  0
 11 39  1  0  0  0  0
 11 40  1  0  0  0  0
 12 23  1  0  0  0  0
 12 41  1  0  0  0  0
 13 14  1  0  0  0  0
 13 42  1  0  0  0  0
 14 23  1  0  0  0  0
 14 43  1  0  0  0  0
 15 44  1  0  0  0  0
 15 45  1  0  0  0  0
 15 46  1  0  0  0  0
 16 21  1  0  0  0  0
 16 47  1  0  0  0  0
 16 48  1  0  0  0  0
 16 49  1  0  0  0  0
 17 18  1  0  0  0  0
M  END
$$$$
