19   
torsion grid (-165,)
C        0.5009089267    1.8957167449    0.8113949256
C        1.4248812028    0.9886252195    0.2873350349
C        1.8981735856    2.1466577019    2.7871164344
C        2.8335320157    1.2554762898    2.2470077923
C        0.7535100650    2.4640981323    2.0604994057
C        2.5839104738    0.6732038388    0.9959366954
C        4.8647962888    1.9155523958    3.3512700334
C        5.8734388275    2.2593004671    2.2686332183
O        3.9539467621    0.8880020443    2.9491438615
Br      -0.5067764203    3.7005685156    2.8065822732
Br       3.8539383981   -0.5339160434    0.2385965655
Br       5.1197003052    3.4367985383    0.8651189449
H       -0.3953692157    2.1493506868    0.2559917708
H        1.2486467750    0.5368351174   -0.6833985407
H        2.0676876982    2.5772716776    3.7680134593
H        4.3351392111    2.8119134110    3.6887085384
H        5.4081587206    1.5021818586    4.2076895357
H        6.2237366013    1.3638188076    1.7579440272
H        6.7136261205    2.8125724808    2.6891046886
19   
torsion grid (-150,)
C        0.9267229441    2.4931963043    1.7887136933
C        1.4937958823    1.5594779562    0.9195892821
C        2.6070078507    1.9355294916    3.4552130013
C        3.1861638488    1.0142538481    2.5736077922
C        1.4949716347    2.6687212201    3.0517595853
C        2.6177845612    0.8278508541    1.3060047713
C        5.4767904009    0.9609101662    3.2436362317
C        6.2108315128    1.4119786331    1.9857890364
O        4.2640036153    0.2546857703    2.9630940297
Br       0.7246442587    3.9363742793    4.2648214746
Br       3.3882971250   -0.4222989152    0.0835236965
Br       5.7130238127    3.2453600845    1.4190425749
H        0.0586869257    3.0682826649    1.4853913188
H        1.0662829426    1.4082924110   -0.0662098138
H        3.0292156356    2.0654354731    4.4459118037
H        5.2900400926    1.8134251973    3.9050264015
H        6.1113882565    0.2615878734    3.7961772524
H        5.9995188151    0.7549826594    1.1443646657
H        7.2848743056    1.4619175862    2.1625642608
19   
torsion grid (-135,)
C        0.0696187872    1.2171068999    1.4755429906
C        0.7625231185    0.2820135477    0.6996444283
C        2.1488788031    1.7547825236    2.6313651266
C        2.8369536371    0.8118382659    1.8569193355
C        0.7802528378    1.9390973854    2.4306179711
C        2.1266007463    0.0789180267    0.8859203185
C        4.9410580028    1.1004826260    3.0403971905
C        5.5735796282    2.4487399688    2.6746109453
O        4.1691999121    0.5460795279    1.9708462825
Br      -0.1317209436    3.2406886920    3.5022558531
Br       3.0406867849   -1.2112825716   -0.1867362578
Br       4.8114438972    4.0086326652    3.6374851920
H       -0.9932405067    1.3749804459    1.3304565056
H        0.2346253287   -0.2951731479   -0.0526070969
H        2.6678810317    2.3621301697    3.3610583896
H        4.3622171177    1.1475317243    3.9664659338
H        5.7418349386    0.3706578292    3.1851582633
H        5.4507972564    2.6541796929    1.6125495374
H        6.6314153994    2.4705047897    2.9301618885
19   
torsion grid (-120,)
C        0.2527624229    2.0331868774    2.3767508044
C        0.4130262764    1.2048597831    1.2606418451
C        2.5728286503    1.6030967628    2.9916660825
C        2.7274043968    0.7716168447    1.8738992699
C        1.3413960687    2.2184123193    3.2243680977
C        1.6318441097    0.5829834030    1.0083722817
C        5.0370359333    0.2713909477    2.3884939391
C        5.7425473880    1.6164514430    2.1409822828
O        3.8794976936    0.1145491376    1.5606315975
Br       1.1639364262    3.3543126395    4.7577308542
Br       1.8170748040   -0.5383128064   -0.5270832542
Br       6.0235109643    2.6691479822    3.7979338273
H       -0.6967296304    2.5196697467    2.5702859578
H       -0.4187572993    1.0433960039    0.5825675637
H        3.3959674453    1.7897958842    3.6693840369
H        4.7882528906    0.1186041233    3.4420316123
H        5.6817133850   -0.5456680322    2.0601790589
H        5.1459272901    2.2510753721    1.4882311091
H        6.7350338135    1.4882684111    1.7144431954
19   
torsion grid (-105,)
C        0.1766487009    0.9800217780    1.1850212892
C        0.9990110677    0.0884755745    0.4878092750
C        2.0986090143    1.6641467733    2.5214427789
C        2.9173419328    0.7631346203    1.8237922249
C        0.7442610505    1.7548592200    2.1925115993
C        2.3507020949   -0.0197416313    0.7991163738
C        4.8702604426    1.3669539825    3.0957653529
C        5.1339306220    2.7984731147    2.6035816501
O        4.2460744209    0.5850792707    2.0711435789
Br      -0.3546601105    2.9900562777    3.1613172324
Br       3.4500034360   -1.2422941348   -0.1724571171
Br       4.7867178576    4.1380224415    4.0189458213
H       -0.8763858019    1.0648909320    0.9410158398
H        0.5820617534   -0.5260306925   -0.3035279348
H        2.4972266182    2.2970420649    3.3049067550
H        4.2771598378    1.3474323546    4.0132905490
H        5.8120258656    0.8472905226    3.2773485922
H        4.4650417471    3.0604776790    1.7863347419
H        6.1653883546    2.9495572111    2.2924483527
19   
torsion grid (-90,)
C        4.6174183318    6.2511580590    4.0740593353
C        3.3381943213    5.9963376058    4.5796295213
C        4.5346174804    4.1274942480    2.8791444928
C        3.2526235689    3.8748047070    3.3910427849
C        5.1940561275    5.3075335169    3.2286633117
C        2.6618356108    4.8275766635    4.2437784903
C        3.0825523063    1.7634571360    2.2438224482
C        2.9383615724    2.2084653624    0.7860270002
O        2.5274828429    2.7525460845    3.1209106614
Br       6.9406881666    5.6251258628    2.5076956291
Br       0.9158562599    4.5136316922    4.9500364564
Br       4.3058473203    1.3360161008   -0.3438768513
H        5.1416785559    7.1637090134    4.3347644088
H        2.8647491726    6.7151830316    5.2405729283
H        5.0235942748    3.4262631030    2.2143398251
H        4.1206420858    1.5474515253    2.5074900825
H        2.4791704863    0.8751424824    2.4345149792
H        3.1080969714    3.2775370407    0.6754705703
H        1.9696618381    1.9460476113    0.3658152968
19   
torsion grid (-75,)
C        4.6211968404    6.2693535976    4.0741531322
C        3.3385754477    6.0032587873    4.5644934113
C        4.5749774113    4.1392671566    2.8875468633
C        3.2886872937    3.8753756404    3.3816237019
C        5.2176411345    5.3272666335    3.2408561458
C        2.6794692883    4.8257822745    4.2239995240
C        3.1247629048    1.7723487636    2.2095797766
C        2.9301727053    2.2251000899    0.7653371828
O        2.5772877610    2.7453010771    3.1084256522
Br       6.9707357478    5.6596494517    2.5428430059
Br       0.9290333581    4.4952328928    4.9099985382
Br       3.9573304812    1.0470885216   -0.4415529930
H        5.1331306299    7.1882136346    4.3371301968
H        2.8489843957    6.7199217212    5.2159850867
H        5.0811909254    3.4377931410    2.2364268217
H        4.1749254732    1.5713023030    2.4370170575
H        2.5496502955    0.8664985821    2.4050430750
H        3.3057826088    3.2318978798    0.5936588372
H        1.8879967262    2.1621439874    0.4577671684
19   
torsion grid (-60,)
C        2.4517616204   -1.4736157470   -0.2283031701
C        1.1763561154   -0.9737918390    0.0546277952
C        3.0372740009   -1.2209708204    2.1248442642
C        1.7569014182   -0.7207242857    2.4048642833
C        3.3627048813   -1.5884992048    0.8179162682
C        0.8309732008   -0.6007813973    1.3500856958
C        2.2443161733   -0.3672672894    4.7478673483
C        3.1378851898    0.8666476620    4.7134997338
O        1.3303365696   -0.3454687376    3.6436082121
Br       5.1219892766   -2.2637885428    0.4685342321
Br      -0.9176499156    0.0807729967    1.7008697718
Br       4.2958125705    0.8739205963    6.3120665770
H        2.7205716544   -1.7608354660   -1.2386281644
H        0.4462796805   -0.8730672005   -0.7419541634
H        3.7796560730   -1.3312158555    2.9049793937
H        1.6124406109   -0.3524998596    5.6364666731
H        2.8284173938   -1.2917905087    4.7561087640
H        2.5465817108    1.7800565153    4.7515974893
H        3.8017797096    0.8893233001    3.8515409767
19   
torsion grid (-45,)
C        2.4772405392   -1.4763101281   -0.2043963928
C        1.1928518534   -0.9850753852    0.0515892613
C        3.0214491390   -1.1997337130    2.1555551261
C        1.7322953309   -0.7074807941    2.4084055461
C        3.3719778720   -1.5750355767    0.8574297095
C        0.8228303226   -0.6039445603    1.3378710424
C        2.1844720498   -0.3527404777    4.7508114768
C        3.1036363662    0.8654632489    4.7277075221
O        1.2853725942   -0.3228666541    3.6376721508
Br       5.1427976667   -2.2359827020    0.5433016163
Br      -0.9378106625    0.0633317914    1.6530709641
Br       4.5327239073    0.6407670523    6.0718020339
H        2.7654691423   -1.7699021234   -1.2075046884
H        0.4755535591   -0.8977082613   -0.7580952816
H        3.7515434881   -1.2957173102    2.9492756168
H        1.5424262784   -0.3225725903    5.6323932147
H        2.7508962249   -1.2874635215    4.7870995047
H        2.5713739289    1.7805768689    4.9806811866
H        3.6081674515    0.9845722313    3.7708345785
19   
torsion grid (-30,)
C        2.5187058333   -1.4832471269   -0.1798053640
C        1.2241544492   -1.0099682258    0.0585506780
C        3.0357298081   -1.1659284330    2.1817778620
C        1.7352300095   -0.6940237371    2.4164646695
C        3.4047377164   -1.5519019130    0.8916815825
C        0.8351800890   -0.6181849011    1.3359819907
C        2.1627621784   -0.3262194465    4.7550434375
C        3.1139896325    0.8735672583    4.7191104805
O        1.2709836347   -0.3022438569    3.6373437546
Br       5.1898205796   -2.1854429929    0.6032845095
Br      -0.9389810910    0.0257218753    1.6245479959
Br       4.7739724266    0.4709530387    5.7134019735
H        2.8208843919   -1.7852843664   -1.1763247146
H        0.5130078943   -0.9453392832   -0.7586456011
H        3.7619814089   -1.2339865317    2.9821987033
H        1.5126589412   -0.2659626168    5.6293710050
H        2.7046128437   -1.2734756561    4.8193515321
H        2.6810036914    1.7606633321    5.1767512547
H        3.4311752162    1.1036969904    3.7038200646
19   
torsion grid (-15,)
C        0.2632204251   -0.0033936464    1.2925730111
C        0.4394072465    0.9602990058    2.2912676701
C        2.6473804602   -0.5061740610    1.3987560829
C        2.8163818815    0.4566457529    2.4051849236
C        1.3757924051   -0.7209332432    0.8624786262
C        1.6966552807    1.1914060284    2.8406770490
C        5.1775110161    0.0347182555    2.5794844094
C        5.7002975712    0.5843387844    1.2430370712
O        4.0082143060    0.7363015855    3.0062635937
Br       1.1697571514   -2.0428843667   -0.5093186586
Br       1.9067083690    2.5184489385    4.1979179358
Br       6.3380429154   -0.8618729225    0.0516712146
H       -0.7168266373   -0.1813886602    0.8642139550
H       -0.4108847997    1.5353734596    2.6432907442
H        3.4852524195   -1.0808089904    1.0233283123
H        5.9053710641    0.2173529184    3.3718393330
H        5.0040498662   -1.0439212101    2.5395066752
H        6.5410236424    1.2629209455    1.3704039035
H        4.9089230530    1.0862889308    0.6898317149
19   
torsion grid (0,)
C        2.0627138199   -2.5843030809    5.4147871846
C        3.3134320482   -2.5260895262    4.7906677659
C        1.1495137843   -1.1698202799    3.6508860963
C        2.4037551783   -1.1186172887    3.0272146100
C        0.9996511066   -1.9008735325    4.8307829587
C        3.4858892275   -1.8031893911    3.6142904437
C        1.6011265059    0.2589865942    1.2134481313
C        1.2912827288    1.6080616579    1.8861541128
O        2.6569245653   -0.4444206390    1.8697998382
Br      -0.7265771853   -1.9496251458    5.6619650406
Br       5.2081922910   -1.7417429174    2.7901624216
Br      -0.6223737097    1.8261247612    2.3580921673
H        1.9303560995   -3.1461426669    6.3326536214
H        4.1597931212   -3.0487398832    5.2245158884
H        0.2985223380   -0.6399934509    3.2422357027
H        1.9949902646    0.4366002267    0.2107736254
H        0.7080954376   -0.3630347363    1.1051727802
H        1.5222477148    2.4523758095    1.2402980363
H        1.8376553715    1.7074967245    2.8224602853
19   
torsion grid (15,)
C        3.1101022560   -1.4102104750    0.1498946487
C        1.8464417882   -0.8085801288    0.1670597575
C        2.9401211857   -1.7713619100    2.5554665788
C        1.6745051576   -1.1669014477    2.5679338738
C        3.6350761708   -1.8822706183    1.3488508794
C        1.1367507600   -0.6874605018    1.3569214045
C        1.4308157007   -1.4848888239    4.9357126588
C        0.3862718771   -1.1477532992    5.9937381853
O        0.9149381367   -1.0150414890    3.6846212554
Br       5.3624166974   -2.7132791748    1.3577348477
Br      -0.5853826573    0.1361005410    1.3539516658
Br       0.9009347332    0.4050885161    7.1063208267
H        3.6631920725   -1.5042121928   -0.7779092980
H        1.4140423561   -0.4324065974   -0.7544852342
H        3.3853064185   -2.1518193846    3.4657124307
H        1.5847918037   -2.5706753749    4.8860967249
H        2.3838229608   -0.9890662740    5.1425549688
H        0.2493644127   -1.9634922223    6.7008530907
H       -0.5632542887   -0.8956258219    5.5258757447
19   
torsion grid (30,)
C        3.0974886757   -1.3907118042    0.1525363397
C        1.8535923017   -0.7500737599    0.1885132549
C        2.9204781763   -1.8015524695    2.5491042002
C        1.6744080832   -1.1589236216    2.5800945592
C        3.6095267189   -1.9067421005    1.3388931052
C        1.1497095053   -0.6338327618    1.3824259450
C        1.4430609199   -1.5078096819    4.9415980578
C        0.4266838358   -1.1659579136    6.0152174030
O        0.9237618225   -1.0141485706    3.7031128728
Br       5.3086133686   -2.7937264899    1.3270516661
Br      -0.5434102339    0.2462712193    1.4013605620
Br       0.7433870118    0.6149316599    6.8127830767
H        3.6449627870   -1.4801291676   -0.7790327048
H        1.4313214214   -0.3382366872   -0.7224121301
H        3.3553427199   -2.2172639311    3.4489084788
H        1.5698581076   -2.5976417019    4.8835057753
H        2.4070514858   -1.0295292929    5.1424465099
H        0.4910040954   -1.8626713357    6.8496381560
H       -0.5831016188   -1.1574863626    5.6087883786
19   
torsion grid (45,)
C        3.1557017957   -1.4006916981    0.1701161588
C        1.9227167114   -0.7383234566    0.1855774403
C        2.9159561574   -1.8414057373    2.5550581103
C        1.6820715311   -1.1749891871    2.5656756056
C        3.6313211099   -1.9428081971    1.3600505370
C        1.1929288875   -0.6249488252    1.3641725546
C        1.4049537825   -1.5192307560    4.9201436940
C        0.3958328837   -1.1534954201    5.9859716474
O        0.9108631415   -1.0278002582    3.6740306591
Br       5.3149265325   -2.8599121545    1.3763418858
Br      -0.4847319595    0.2847487179    1.3565698934
Br       0.4785543708    0.7637324994    6.4553832186
H        3.7231903035   -1.4864625928   -0.7497274078
H        1.5296767498   -0.3060549420   -0.7289657021
H        3.3208360436   -2.2790213282    3.4584634155
H        1.5018788395   -2.6138252737    4.8782961125
H        2.3819705822   -1.0739791177    5.1371660707
H        0.6009167168   -1.6935564492    6.9096468181
H       -0.6218907320   -1.3488934554    5.6515081743
19   
torsion grid (60,)
C        3.3012474605   -1.1442500758    0.6740484052
C        1.9857501847   -0.6660710179    0.6570771587
C        3.1369973090   -1.4237262727    3.0896639140
C        1.8215456583   -0.9384990629    3.0677127595
C        3.8547058900   -1.5163270611    1.8952059409
C        1.2523832367   -0.5633084154    1.8345687916
C        1.5981115167   -1.1386782402    5.4408567327
C        0.5699754418   -0.8441854889    6.5093116274
O        1.0436879949   -0.8069601695    4.1740998738
Br       5.6544664416   -2.1752722119    1.9577399802
Br      -0.5400528132    0.0895867820    1.7823537600
Br       0.1085756533    1.0742061659    6.5885771411
H        3.8711087609   -1.2213673249   -0.2451353761
H        1.5306382043   -0.3696622302   -0.2824768395
H        3.6043359546   -1.7263222774    4.0178252655
H        1.8281725355   -2.2149377416    5.4775854290
H        2.5259975840   -0.5859330708    5.6294701761
H        0.9556046567   -1.1135898504    7.4920457322
H       -0.3655906193   -1.3671287748    6.3148605692
19   
torsion grid (75,)
C        2.6860626042   -1.0594342011    0.1559844341
C        1.4869599585   -0.4196295751    0.4912560180
C        2.8884551008   -1.8250649269    2.4613544796
C        1.6899961113   -1.1772394758    2.7930597194
C        3.3671809967   -1.7534524866    1.1511871248
C        0.9923607676   -0.4754013930    1.7901168375
C        1.8379123593   -1.8345242211    5.0856753519
C        1.0760999273   -1.6599386021    6.3850410026
O        1.1433801857   -1.1801493628    4.0370313671
Br       5.0140586460   -2.6399303730    0.7270408511
Br      -0.6448560665    0.4034804288    2.2233155097
Br       0.5835160289    0.2201639382    6.7285271585
H        3.0710304190   -1.0126161516   -0.8565266946
H        0.9364015050    0.1282784012   -0.2666517414
H        3.4464525794   -2.3794421443    3.2049247905
H        1.8874340479   -2.9157520155    4.8808631539
H        2.8720426306   -1.4832676648    5.1873937294
H        1.6790760808   -1.9966621680    7.2273969308
H        0.1289684387   -2.1974712087    6.3646832654
19   
torsion grid (90,)
C        0.4987188640    1.5948083837    1.1683051187
C        1.3958622342    0.7826862033    0.4666681112
C        2.1240611516    1.7735996644    2.9752451644
C        3.0241882384    0.9690728728    2.2644921590
C        0.8814687662    2.0760212018    2.4170832921
C        2.6421581818    0.4739259345    1.0037852544
C        4.8480274431    1.3509112185    3.7810322684
C        5.1767427144    2.8173701307    3.4639197420
O        4.2532231517    0.6057094393    2.7296687203
Br      -0.3211622473    3.1897091936    3.4117403598
Br       3.8514793330   -0.6171307038    0.0131186563
Br       5.6029608032    3.1183148015    1.5619712230
H       -0.4682151464    1.8427558530    0.7450331223
H        1.1245225214    0.3951651048   -0.5100248673
H        2.3744624002    2.1586252467    3.9554538489
H        4.2078283644    1.3375628709    4.6749461235
H        5.7534545274    0.8068447405    4.0526465553
H        6.0401543772    3.1432435038    4.0429629176
H        4.3395925788    3.4844584829    3.6590143763
19   
torsion grid (105,)
C        0.5024283523    1.9553594985    1.4168817707
C        1.2072931004    0.9957218747    0.6823324185
C        2.3242394381    2.0068334428    3.0341797646
C        3.0267029260    1.0454522016    2.2955794966
C        1.0781232545    2.4456734156    2.5852165893
C        2.4515180786    0.5448524682    1.1121553303
C        4.8944971055    1.0428844613    3.8066303796
C        5.5205140600    2.4539613888    3.6960523938
O        4.2425148393    0.5450227140    2.6493492031
Br       0.1508978983    3.7718586478    3.6139164953
Br       3.3902309650   -0.7590360382    0.0828100824
Br       5.6918597691    3.1166223841    1.8485867959
H       -0.4652851532    2.3083386976    1.0785466111
H        0.7832816543    0.5974650289   -0.2338254352
H        2.7365924868    2.4254133746    3.9426636890
H        4.2040978731    1.0373875080    4.6599997147
H        5.6708874321    0.3118103739    4.0358068043
H        6.5250440690    2.4588779566    4.1159902071
H        4.9216760998    3.2103201600    4.2002350463
19   
torsion grid (120,)
C        0.4798364664    1.4822646341    1.1086624950
C        1.3579658088    0.6149807071    0.4501743968
C        2.2091462725    1.9233900589    2.7669464895
C        3.0833145170    1.0478455591    2.1088289944
C        0.9249279774    2.1246225086    2.2606885892
C        2.6421308283    0.3981376673    0.9409801930
C        4.8159570067    1.3172244720    3.7515711766
C        5.3467081310    2.7767620729    3.7069378316
O        4.3530251057    0.7784860749    2.5221500331
Br      -0.2421658845    3.3374749648    3.1796799260
Br       3.8191489161   -0.7855092134    0.0150406741
Br       5.2168866260    3.6549734474    1.9471531658
H       -0.5199360058    1.6510843982    0.7246340285
H        1.0380557093    0.1034113060   -0.4518753399
H        2.5232072502    2.4692396531    3.6469445264
H        4.0346990867    1.2363478617    4.5149861779
H        5.6300401417    0.6553767647    4.0521423251
H        6.4037722752    2.8125470299    3.9632800859
H        4.7953070818    3.4238976012    4.3876825738
19   
torsion grid (135,)
C        0.4481300015    1.2357797013    1.0259915875
C        1.4343237923    0.4920538063    0.3701565968
C        2.0932852821    1.8750000769    2.7064094920
C        3.0762252013    1.1195251325    2.0523366650
C        0.7991567484    1.9177062520    2.1880971569
C        2.7303684561    0.4313069170    0.8742599467
C        4.7483111869    1.5102542131    3.7489623657
C        5.3012285374    2.9567031090    3.7431879967
O        4.3662399715    1.0027910626    2.4746807034
Br      -0.5203496004    2.9660850474    3.1035826023
Br       4.0532911099   -0.5915276340   -0.0477641693
Br       4.8139095405    4.0349712207    2.1662187889
H       -0.5614399078    1.2815656780    0.6332990541
H        1.1899292661   -0.0475676667   -0.5391170107
H        2.3301484846    2.4547030096    3.5887112003
H        3.9288499196    1.4061176348    4.4648010683
H        5.5606139273    0.8454600609    4.0529293350
H        6.3893581451    2.9548330782    3.7355709306
H        4.9511089071    3.5140406920    4.6114819685
19   
torsion grid (150,)
C        0.5540823406    1.0921684677    0.8679094519
C        1.5657066829    0.2527611688    0.3911315596
C        2.0883045515    1.9170817697    2.5739371839
C        3.0960785982    1.0647868407    2.1018432586
C        0.8377956797    1.9131764958    1.9562335835
C        2.8179758577    0.2353733096    0.9987529662
C        4.6565138709    1.5820440632    3.8858988936
C        5.4244853723    2.9058348979    3.7616047025
O        4.3492494463    0.9806111894    2.6291897641
Br      -0.5170125125    3.0942027357    2.6255991865
Br       4.1752775911   -0.9254704677    0.3219818239
Br       4.8748041248    4.0331437593    2.2386953461
H       -0.4221922005    1.1037952421    0.3964294743
H        1.3750824162   -0.3968598037   -0.4570247374
H        2.2759074632    2.6062473023    3.3862752430
H        3.7637885784    1.6814445559    4.5066590421
H        5.3375612306    0.8583388188    4.3450007346
H        6.4820888356    2.7221237001    3.5810882010
H        5.3092169213    3.5077144819    4.6631273586
19   
torsion grid (165,)
C        0.4904262658    0.9481427864    1.0464687499
C        1.5065796337    0.2450699434    0.3929351559
C        2.1379587207    1.8051720124    2.6255927307
C        3.1516706592    1.0837347534    1.9787582016
C        0.8275332743    1.7192492533    2.1568700734
C        2.8194984836    0.3058813157    0.8539988625
C        4.8319640580    1.3674425344    3.7074674938
C        5.6594580677    2.6384273357    3.8375360047
O        4.4625039520    1.1127653759    2.3490752419
Br      -0.5395188385    2.7123878108    3.0638791691
Br       4.1824048820   -0.6789602308   -0.0525065386
Br       4.8261583800    4.2044233423    2.9707913002
H       -0.5330458782    0.8949320309    0.6923757276
H        1.2724732554   -0.3627975483   -0.4750261401
H        2.3697646065    2.4568528641    3.4579743121
H        3.9621832363    1.3713223182    4.3670126406
H        5.4869618994    0.5273624779    3.9696308111
H        6.6203201296    2.5284382676    3.3370830066
H        5.8150202758    2.8941593605    4.8859512329
19   
torsion grid (180,)
C        0.6853563129    1.1633390943    0.7372666640
C        1.8582146372    0.5404526128    0.3025010600
C        1.7268366736    1.5576667580    2.9018364498
C        2.9097112290    0.9568632783    2.4521199431
C        0.6389881034    1.6635837507    2.0380837611
C        2.9615924980    0.4393212367    1.1479784320
C        4.4665318100    1.8750400212    4.0638487338
C        5.5607995800    2.6607597867    3.3644203888
O        3.9976380134    0.7838389434    3.2645236246
Br      -0.9636472866    2.5061517364    2.6687163052
Br       4.5631074575   -0.3830871727    0.5160383869
Br       4.9135956798    3.5851995261    1.7412413758
H       -0.1689123953    1.2518670934    0.0752458248
H        1.9181090950    0.1437544628   -0.7057802813
H        1.6538787918    1.9296538987    3.9173504777
H        3.6517101184    2.5303848170    4.3812150336
H        4.9072969847    1.3977013328    4.9460703284
H        6.3591088598    2.0024671761    3.0249988446
H        5.9598385223    3.4346116248    4.0213986680
