19   
torsion grid (-165,)
C       -0.2939123096    1.8346541635    3.3873417660
C       -0.5802728370    0.6451315698    2.6298338430
C        0.4458199499    2.6398392895    2.5750526921
C        0.0128397749    0.8061621852    1.4066347531
C       -0.3305731535   -1.4053286827    0.1165793597
C       -0.2783998104    0.7850687081   -1.1645338709
C        1.1326543640    0.3961485634   -0.8975066242
C        0.0593641235    0.0337619181    0.1430044243
O       -0.3336656270   -2.0905318410   -0.8920788192
O        0.6439645120    2.0301096408    1.3620341971
O       -0.6895244655   -1.9149597346    1.3234076065
H       -0.5989782596    2.0529353281    4.4024256951
H       -1.1420590033   -0.2169399674    2.9532300345
H        0.8960960697    3.6153347821    2.6883713736
H       -0.5612600612    1.8237612070   -1.0324315282
H       -0.8357015413    0.2191367663   -1.9028804071
H        1.5411775481   -0.4401261663   -1.4536245505
H        1.8330961641    1.1647984601   -0.5927078649
H       -0.9101154626   -2.8515965573    1.1543716658
19   
torsion grid (-150,)
C       -0.2237172993    1.8078353658    3.4074351417
C       -0.4507069454    0.5869514519    2.6794456119
C        0.3219916895    2.6886618917    2.5239833960
C       -0.0249205169    0.8093654889    1.3974407111
C       -0.4052722272   -1.3962943724    0.1001936803
C       -0.2250450958    0.7808538712   -1.1841609408
C        1.1610526684    0.3468979093   -0.8598867616
C        0.0295218704    0.0297603979    0.1382817010
O       -0.3962507117   -2.0826429479   -0.9075926474
O        0.4511700447    2.0985572354    1.2918555827
O       -0.8212182382   -1.8944214754    1.2934198723
H       -0.4401729733    1.9961036035    4.4508870105
H       -0.8716073228   -0.3305864711    3.0578777094
H        0.6605284096    3.7123956134    2.5914536518
H       -0.4762666031    1.8297873742   -1.0739182733
H       -0.7698736095    0.2269946713   -1.9405116514
H        1.5662425116   -0.5056963603   -1.3932872900
H        1.8714720515    1.0948825958   -0.5268359318
H       -1.0685841478   -2.8226906407    1.1151969266
19   
torsion grid (-135,)
C        0.3948339497    1.8753506237    3.4985334990
C        0.4316377587    0.6081601136    2.8170776512
C        0.0019137229    2.7971863142    2.5763045344
C        0.0530878377    0.8462731428    1.5231545448
C       -0.0009648146   -1.4485095186    0.3337607811
C       -0.9960769987    0.5670193396   -0.8318135530
C        0.4785037992    0.6401652689   -1.0218718319
C       -0.0790202828    0.0402398758    0.2866184011
O       -0.0840918364   -2.1659889130   -0.6486592020
O       -0.2117326487    2.1893710444    1.3648183347
O        0.1709376037   -1.9667823800    1.5774351527
H        0.6288457685    2.0659565859    4.5377731478
H        0.6974271612   -0.3502231510    3.2336786385
H       -0.1737704838    3.8628220341    2.6033303616
H       -1.5331658758    1.4788794114   -0.5979963223
H       -1.5417615453   -0.1911710679   -1.3821627730
H        0.9428772664   -0.0648653969   -1.7023894618
H        0.9652993093    1.6028615825   -0.9111998053
H        0.1990873249   -2.9354968042    1.4533480504
19   
torsion grid (-120,)
C        0.4646140281    1.8787914879    3.4677804579
C        0.5792160282    0.6326407839    2.7583320489
C       -0.1372184746    2.7535966803    2.6139690998
C        0.0292745151    0.8318494071    1.5209025716
C       -0.0656179853   -1.4638243432    0.3480082162
C       -0.9373317961    0.5749602851   -0.8756195355
C        0.5463059695    0.5940213961   -1.0048680162
C       -0.0924606217    0.0267679189    0.2828366194
O       -0.1407716230   -2.1898411030   -0.6287482938
O       -0.4107186991    2.1334973288    1.4214043095
O        0.0518350318   -1.9697588792    1.6028945961
H        0.7858067611    2.0879325093    4.4798125621
H        1.0008499626   -0.2914509042    3.1224759895
H       -0.4389326539    3.7885701072    2.6848899259
H       -1.4527859872    1.5069497380   -0.6764671677
H       -1.4840920280   -0.1694040145   -1.4434169506
H        1.0146749959   -0.1317325054   -1.6606057716
H        1.0634345999    1.5391299978   -0.8778231200
H        0.0498996066   -2.9404331005    1.4925571433
19   
torsion grid (-105,)
C        0.5258432278    1.9032694535    3.4481085548
C        0.7416903047    0.7087287031    2.6782586202
C       -0.2965477217    2.6950004750    2.7021182486
C        0.0257672429    0.8502143677    1.5210053692
C       -0.1591094791   -1.4450482156    0.3722745675
C       -0.8762327415    0.6255482135   -0.9032581150
C        0.6095528903    0.5560084386   -0.9883074801
C       -0.1026489312    0.0448449702    0.2842723096
O       -0.2504717023   -2.1841225322   -0.5933868730
O       -0.6128926525    2.0700522326    1.5241029374
O       -0.0944675074   -1.9297814319    1.6388002529
H        0.9283082826    2.1364260635    4.4252378333
H        1.3337690704   -0.1515244155    2.9548247307
H       -0.7375784177    3.6702704991    2.8492374060
H       -1.3441257190    1.5876551807   -0.7323635961
H       -1.4478197270   -0.0925922823   -1.4803430631
H        1.0534541119   -0.2039064020   -1.6221753937
H        1.1795858306    1.4696653981   -0.8556833197
H       -0.1465421010   -2.9010020484    1.5483795215
19   
torsion grid (-90,)
C        0.5576896007    1.9079720292    3.4116504972
C        0.9300901515    0.8245451032    2.5448626362
C       -0.5034064768    2.5242071673    2.8138461685
C        0.0677487976    0.8513203156    1.4843639234
C       -0.2381704867   -1.4573236595    0.3979385382
C       -0.7717445255    0.6247943725   -0.9529607156
C        0.7059543879    0.4463050180   -1.0006520467
C       -0.0667315910    0.0220192406    0.2657135313
O       -0.3439162828   -2.2227853436   -0.5456584520
O       -0.8194518436    1.8930895583    1.6411029711
O       -0.2637562555   -1.8935944692    1.6825665847
H        1.0184601588    2.1893181970    4.3495264877
H        1.7240103162    0.1058420943    2.6962482567
H       -1.1175483001    3.3755470017    3.0699954478
H       -1.1762632620    1.6205483530   -0.8139641474
H       -1.3814263863   -0.0637478899   -1.5271347449
H        1.1046739787   -0.3608741092   -1.6055864261
H        1.3401930606    1.3181663384   -0.8796309285
H       -0.3862550659   -2.8609540901    1.6270886597
19   
torsion grid (-75,)
C        0.6108779063    1.9347819751    3.3760300861
C        1.0929776550    1.0017287500    2.3959248201
C       -0.6312963012    2.3151953435    2.9554553957
C        0.1152745198    0.8821657784    1.4480790814
C       -0.3124101346   -1.4221852755    0.4080211020
C       -0.6663896319    0.6610140067   -1.0012474197
C        0.7975421990    0.3887759066   -1.0060692692
C       -0.0230712050    0.0359910718    0.2443878850
O       -0.3975974601   -2.2165960525   -0.5132615854
O       -0.9533531091    1.6828422738    1.7868971525
O       -0.4854420045   -1.7942184919    1.7010293632
H        1.1191552757    2.2760134095    4.2683365036
H        2.0404049053    0.4789097843    2.3962573046
H       -1.3752240820    2.9967095084    3.3427427329
H       -1.0121851092    1.6818812515   -0.8831926238
H       -1.3054933573    0.0048345850   -1.5814098320
H        1.1553787092   -0.4538680083   -1.5877430685
H        1.4836793382    1.2209405987   -0.8906560144
H       -0.6809434187   -2.7506666045    1.6764021804
19   
torsion grid (-60,)
C        0.6140001377    1.9862579970    3.3336243690
C        1.1261560159    1.1403985670    2.2907886317
C       -0.7096418003    2.1698553209    3.0531617030
C        0.0823658460    0.8746694711    1.4491572647
C       -0.4286458049   -1.4174167792    0.4347463214
C       -0.6101268659    0.6545272519   -1.0296751538
C        0.8370490503    0.3045807701   -0.9599891035
C       -0.0557093572    0.0201125359    0.2532606765
O       -0.5479662223   -2.2223620245   -0.4731295711
O       -1.0531298165    1.5015336508    1.9113172110
O       -0.6324238354   -1.7533437602    1.7328884964
H        1.1559922520    2.4003373080    4.1737036609
H        2.1369286161    0.7697117571    2.1809520415
H       -1.5040404310    2.7248440616    3.5316062483
H       -0.9026683178    1.6955305871   -0.9460759775
H       -1.2557040448    0.0224262282   -1.6292456540
H        1.1740104635   -0.5663519971   -1.5115084737
H        1.5607649153    1.1023525335   -0.8326284005
H       -0.8786065700   -2.6982868084    1.7278930513
19   
torsion grid (-45,)
C        0.6205109319    2.0553666607    3.2882404929
C        1.1373599692    1.2700388039    2.2004020916
C       -0.7357927037    2.0650591725    3.1338211024
C        0.0612172084    0.8614729001    1.4631749938
C       -0.5168652771   -1.4012904133    0.4235103531
C       -0.5442721645    0.6788387200   -1.0456639033
C        0.8809381157    0.2584157907   -0.9104317737
C       -0.0781134717    0.0201146201    0.2591603099
O       -0.6912011266   -2.1839565824   -0.4946805040
O       -1.0957711005    1.3483294455    2.0266533615
O       -0.7026283380   -1.7508217193    1.7204699747
H        1.1809807617    2.5425352896    4.0752761792
H        2.1725622184    1.0297268425    1.9965263292
H       -1.5470978851    2.5141622083    3.6888638361
H       -0.7851212714    1.7340831940   -0.9751581257
H       -1.1928764205    0.0783377999   -1.6738773675
H        1.1999053333   -0.6284323591   -1.4468452998
H        1.6359469112    1.0215281056   -0.7560180807
H       -0.9880450107   -2.6845470437    1.7072291609
19   
torsion grid (-30,)
C        0.6066201180    2.1373445721    3.2507040871
C        1.1244608190    1.3979734857    2.1310089665
C       -0.7486499980    1.9825970228    3.2093341045
C        0.0491009339    0.8441627883    1.4935414896
C       -0.5968536732   -1.3813420010    0.4127135331
C       -0.4766613827    0.7108157917   -1.0399031487
C        0.9197164809    0.2151854184   -0.8524738182
C       -0.0956887299    0.0228340971    0.2764689712
O       -0.8399881129   -2.1238970522   -0.5229065436
O       -1.1081248954    1.2072505988    2.1419571999
O       -0.7421359122   -1.7687390448    1.7037191259
H        1.1671119714    2.7010456359    3.9848002348
H        2.1618934523    1.2788808850    1.8479859857
H       -1.5601048989    2.3364433695    3.8292183807
H       -0.6607405873    1.7775753955   -0.9713291508
H       -1.1318423078    0.1483066993   -1.6959457237
H        1.2128156873   -0.6846028513   -1.3818279869
H        1.7077787378    0.9375432648   -0.6705757421
H       -1.0661050344   -2.6893434914    1.6716690846
19   
torsion grid (-15,)
C        0.5739398869    2.2076597694    3.2045518397
C        1.0897040789    1.5029881704    2.0616680795
C       -0.7518543883    1.8930675830    3.2741527507
C        0.0440859510    0.8017812783    1.5261777553
C       -0.6813518415   -1.3901718363    0.4221244873
C       -0.4137783534    0.6947810946   -1.0243673626
C        0.9465403602    0.1192461182   -0.7935331453
C       -0.1140751293   -0.0089377602    0.3028940506
O       -1.0069353514   -2.0879047969   -0.5228466636
O       -1.0958077497    1.0503371983    2.2537564003
O       -0.7720074961   -1.8187136851    1.7046732753
H        1.1185270175    2.8522824303    3.8817853456
H        2.1105032846    1.5017289059    1.7038346383
H       -1.5487823391    2.1599000936    3.9535301752
H       -0.5347468328    1.7709400222   -0.9626838558
H       -1.0810098835    0.1697746480   -1.6991614033
H        1.2041987080   -0.7975388502   -1.3118310011
H        1.7702064781    0.7952287659   -0.5930053915
H       -1.1385079731   -2.7226282543    1.6587149944
19   
torsion grid (0,)
C        0.5301749290    2.2798629970    3.1758770375
C        1.0366902716    1.6192638283    2.0033385228
C       -0.7328515600    1.7996536677    3.3631483569
C        0.0522750197    0.7714606784    1.5709821990
C       -0.7465637112   -1.3921336310    0.4535699716
C       -0.3451778955    0.6752436277   -0.9919420143
C        0.9757302685    0.0257252038   -0.7225673877
C       -0.1214598454   -0.0345660497    0.3449882065
O       -1.1599210298   -2.0390446207   -0.4931869083
O       -1.0467718228    0.8944745971    2.3874220276
O       -0.7669607632   -1.8707938109    1.7208779062
H        1.0421019875    3.0039806260    3.7958041210
H        2.0159159111    1.7455379377    1.5616934671
H       -1.4967507138    1.9731547176    4.1075071449
H       -0.4061873625    1.7567369293   -0.9365164457
H       -1.0224920027    0.1850195937   -1.6827213807
H        1.1961837309   -0.9067765414   -1.2299142999
H        1.8328744545    0.6526941861   -0.5038514733
H       -1.1722794174   -2.7573848970    1.6641216577
19   
torsion grid (15,)
C        0.4901941223    2.3425073624    3.1309909955
C        0.9648283708    1.7452028359    1.9127329288
C       -0.6798017729    1.7089190513    3.4314606770
C        0.0602819370    0.7746666381    1.5694662847
C       -0.8338302767   -1.3438764495    0.4224342799
C       -0.2563010922    0.6974628765   -1.0041806283
C        1.0073014503   -0.0424849138   -0.6897271559
C       -0.1324501602   -0.0219301803    0.3374921500
O       -1.3407896332   -1.9151820754   -0.5273920207
O       -0.9654424436    0.7656481627    2.4826785691
O       -0.7950133269   -1.8937631035    1.6596577891
H        0.9634654984    3.1275185259    3.7058891775
H        1.8721289251    1.9979205946    1.3805299200
H       -1.3861806326    1.7855074430    4.2454940465
H       -0.2448063738    1.7805287332   -0.9481532623
H       -0.9397487832    0.2553456157   -1.7209662855
H        1.1812599691   -0.9874903135   -1.1923806792
H        1.8998299682    0.5180130721   -0.4337354432
H       -1.2524335982   -2.7531163175    1.5829792027
19   
torsion grid (30,)
C        0.4241435800    2.3953334855    3.1033171858
C        0.8329831886    1.8858118683    1.8234802092
C       -0.5878256424    1.5850908457    3.5270380364
C        0.0538705242    0.7862189246    1.5691348106
C       -0.8979629852   -1.3106744346    0.3969722836
C       -0.1347957174    0.6813178035   -1.0088065417
C        1.0665838148   -0.1264492420   -0.6235583319
C       -0.1283787450   -0.0252517467    0.3415925087
O       -1.4598695149   -1.8126180399   -0.5611495701
O       -0.8351909836    0.6105222787    2.5971825855
O       -0.8438562649   -1.9235510754    1.6029729177
H        0.8354692553    3.2434464959    3.6346437376
H        1.6125646260    2.2845059439    1.1874864955
H       -1.1966661643    1.5466603332    4.4186452281
H       -0.0669433498    1.7628222093   -0.9633563391
H       -0.8030233828    0.2711123297   -1.7580393758
H        1.2147548996   -1.0834272517   -1.1124990758
H        1.9733515646    0.3807166635   -0.3108921012
H       -1.3450835488   -2.7553805204    1.5001017333
19   
torsion grid (45,)
C       -0.2319720654    2.3030726652    3.0045790326
C       -0.6844665798    1.8817175065    1.7072731291
C        0.6557388086    1.3553551646    3.4217095447
C       -0.0543811982    0.6946812816    1.4348620360
C        0.4817306935   -1.5407266557    0.2532018764
C       -0.9994152518    0.1436546229   -0.8953207553
C        0.3929072900    0.6278544545   -1.1105372706
C        0.0630806985   -0.1054426032    0.1938146341
O        0.9272465619   -2.1631972515   -0.6957072342
O        0.7889430390    0.3803031966    2.4706933068
O        0.2528384090   -2.1222634686    1.4544828624
H       -0.5366594619    3.1854057313    3.5517574464
H       -1.3968946604    2.3945294077    1.0748044501
H        1.2357884275    1.2148009615    4.3223352619
H       -1.7809191989    0.8534835747   -0.6466523524
H       -1.3261844705   -0.7282849906   -1.4515286179
H        1.0161419788    0.0871851720   -1.8147833401
H        0.5967938209    1.6872499227   -0.9992300241
H        0.5347334377   -3.0521264508    1.3565110995
19   
torsion grid (60,)
C       -0.2896559536    2.2508731661    3.0380038963
C       -0.8109853303    1.7679712126    1.7882124694
C        0.7564036743    1.4336002175    3.3517050998
C       -0.0561354776    0.6794567461    1.4385749762
C        0.3868029692   -1.5731483683    0.2764154438
C       -0.9469186374    0.1995486298   -0.9304416304
C        0.4815275403    0.5907470889   -1.0924824746
C        0.0484522008   -0.1178033102    0.1976655616
O        0.7511587202   -2.2470515685   -0.6718794171
O        0.9243267376    0.4843406201    2.3817137702
O        0.1960231152   -2.1020978410    1.5088467528
H       -0.6533933082    3.0849399519    3.6234528302
H       -1.6527853479    2.1711595073    1.2417192896
H        1.4387265509    1.3777865744    4.1877392053
H       -1.6859333378    0.9652665297   -0.7227959343
H       -1.3071361356   -0.6524252524   -1.4963955371
H        1.0955273122    0.0076665098   -1.7705102696
H        0.7479986411    1.6354200424   -0.9741119934
H        0.4244879356   -3.0482523379    1.4301747683
19   
torsion grid (75,)
C       -0.3503572866    2.2012381609    3.0738240959
C       -0.9037480651    1.6725497492    1.8561950700
C        0.8154352676    1.5242785391    3.2830449369
C       -0.0425259657    0.7024384721    1.4196140107
C        0.3120449570   -1.5643737378    0.2699774236
C       -0.8942818625    0.2811405891   -0.9756525515
C        0.5600542300    0.5842965322   -1.0959707686
C        0.0429056269   -0.0951730660    0.1796589294
O        0.5867893945   -2.2755210061   -0.6812357060
O        1.0271653575    0.6198995537    2.2796383416
O        0.1820526235   -2.0536922116    1.5269244753
H       -0.7694826581    2.9722040959    3.7068182618
H       -1.8340019098    1.9631117742    1.3870981004
H        1.5670271176    1.5512165589    4.0590475123
H       -1.5862577468    1.0953999155   -0.7926101840
H       -1.2887206140   -0.5485588085   -1.5516335588
H        1.1572670418   -0.0371843721   -1.7544596778
H        0.8854977492    1.6115515519   -0.9721126379
H        0.3638907799   -3.0108004901    1.4604970536
19   
torsion grid (90,)
C       -0.3993717221    2.1219547650    3.1186250429
C       -0.9732456916    1.5656063218    1.9228393280
C        0.8549368403    1.5934595182    3.2151704497
C       -0.0306687835    0.7341968453    1.3834291179
C        0.2316074051   -1.5391710251    0.2333077695
C       -0.8546101915    0.3750899099   -1.0323157419
C        0.6183361207    0.5917128011   -1.1193000547
C        0.0310268287   -0.0590396668    0.1405409459
O        0.4109534526   -2.2745169517   -0.7222309112
O        1.1020779576    0.7560619232    2.1629118025
O        0.1705197694   -2.0038618995    1.5051809120
H       -0.8605776737    2.8142647794    3.8105628403
H       -1.9649767442    1.7453041486    1.5298078227
H        1.6564978642    1.6979641793    3.9324341289
H       -1.4973643547    1.2308020245   -0.8584295401
H       -1.2840934855   -0.4280325611   -1.6207482196
H        1.1914980656   -0.0629960285   -1.7667168508
H        1.0023571979    1.5974865492   -0.9867633249
H        0.3061632721   -2.9689196630    1.4438126533
19   
torsion grid (105,)
C       -0.4487247554    2.0664318582    3.1716813623
C       -1.0327233049    1.4787930762    1.9962617591
C        0.8650832455    1.6965552985    3.1637899721
C       -0.0345740076    0.7939455327    1.3609103585
C        0.1468145717   -1.4931400001    0.2316618528
C       -0.8075924328    0.4676791070   -1.0794129557
C        0.6782221185    0.6006416192   -1.1202846355
C        0.0141586709   -0.0062870006    0.1223570666
O        0.2475775026   -2.2519638775   -0.7170036623
O        1.1383532966    0.9274552387    2.0669051931
O        0.1336512000   -1.9322654780    1.5143472120
H       -0.9399852646    2.6769291521    3.9178692881
H       -2.0630931114    1.5437281252    1.6723848718
H        1.6980704265    1.8858985807    3.8257870279
H       -1.4050071925    1.3595199317   -0.9252393612
H       -1.2623395266   -0.3141532380   -1.6775525695
H        1.2327319867   -0.0900821291   -1.7459836798
H        1.1159590559    1.5834695218   -0.9823800510
H        0.2262209982   -2.9031041363    1.4654611242
19   
torsion grid (120,)
C       -0.4739224502    1.9975278437    3.1930650834
C       -1.0676397157    1.3565421876    2.0515577617
C        0.8723093012    1.8030019656    3.0757718570
C       -0.0426044039    0.8228638978    1.3215683892
C        0.0722158806   -1.4824623747    0.2253840656
C       -0.7462121772    0.5028797318   -1.1470553483
C        0.7453310709    0.5626845148   -1.1283614289
C        0.0024230569    0.0070040940    0.0926279010
O        0.1094088403   -2.2612194146   -0.7117789141
O        1.1555095178    1.0922390337    1.9428288246
O        0.0915463295   -1.8988748654    1.5158432276
H       -0.9791831453    2.5288911990    3.9888595200
H       -2.1196763852    1.2913733443    1.8065132765
H        1.7237154807    2.0952638728    3.6738273837
H       -1.3048558945    1.4242183548   -1.0229639943
H       -1.2140699257   -0.2643922614   -1.7540123148
H        1.2891416252   -0.1627770165   -1.7231680902
H        1.2274768463    1.5235412387   -0.9844662073
H        0.1458510554   -2.8732170076    1.4809713798
19   
torsion grid (135,)
C       -0.4663575975    1.9371258714    3.2288008382
C       -1.0690934935    1.2145588528    2.1430303974
C        0.8763187727    1.9392799547    2.9800501177
C       -0.0546626496    0.8341849195    1.3095663728
C       -0.0184108803   -1.4823719982    0.2251334671
C       -0.6840176752    0.5314138621   -1.1894461047
C        0.8061053795    0.5157815830   -1.1057419188
C       -0.0131728079    0.0082448752    0.0858136739
O       -0.0197902796   -2.2648308189   -0.7099526655
O        1.1480418271    1.2715644222    1.8186417327
O       -0.0137021500   -1.8982471750    1.5161047380
H       -0.9634624161    2.3922420334    4.0754009612
H       -2.1196492042    0.9978304039    2.0000498459
H        1.7302624788    2.3571890774    3.4939262977
H       -1.2006296431    1.4799322191   -1.0898155900
H       -1.1646735153   -0.2162343078   -1.8108814684
H        1.3370953175   -0.2409589010   -1.6722657802
H        1.3317485899    1.4508537661   -0.9463791722
H       -0.0031100776   -2.8740539036    1.4801685971
19   
torsion grid (150,)
C       -0.4354734416    1.9139193741    3.2678729375
C       -1.0086989974    1.0629906158    2.2625379837
C        0.8465534532    2.1604225708    2.8681927556
C       -0.0388962715    0.8503643313    1.3230657503
C       -0.1030263757   -1.4463644707    0.1821677791
C       -0.5754797565    0.6326482288   -1.2109144117
C        0.9036900270    0.5219863979   -1.0614093563
C        0.0069899050    0.0428473771    0.0847569738
O       -0.1174240029   -2.1992568098   -0.7771232720
O        1.1088529143    1.5183763223    1.6891431825
O       -0.1817446933   -1.9033235581    1.4570789872
H       -0.9127597225    2.2911322062    4.1628310196
H       -2.0084821089    0.6499193698    2.2438230339
H        1.6592366000    2.7430690452    3.2778155294
H       -1.0373360374    1.6087077894   -1.1069838273
H       -1.0752217828   -0.0709789962   -1.8677983258
H        1.4112899499   -0.2570645782   -1.6189494485
H        1.4795711448    1.4180182136   -0.8598426095
H       -0.2345708189   -2.8757745237    1.3842108087
19   
torsion grid (165,)
C       -0.4027620242    1.8658710287    3.3044267632
C       -0.8735343071    0.8301562627    2.4266016370
C        0.7155280967    2.3826815153    2.7182861822
C       -0.0041546112    0.7801900481    1.3720216921
C       -0.2058791448   -1.4790289069    0.1585744516
C       -0.4826588387    0.6656019169   -1.1756653643
C        0.9791531311    0.4416883982   -1.0031620105
C        0.0357345526   -0.0053208162    0.1169727971
O       -0.1942272635   -2.2026231184   -0.8230685954
O        0.9752350822    1.7335432323    1.5403519343
O       -0.4539881952   -1.9634807094    1.4020351026
H       -0.8385034762    2.1798081696    4.2439387511
H       -1.7338612137    0.1911973951    2.5678022674
H        1.4106097302    3.1651333775    2.9866509015
H       -0.8746284732    1.6686567934   -1.0433401474
H       -1.0233091446    0.0216381137   -1.8608130611
H        1.4367002738   -0.3597986616   -1.5721783996
H        1.6142647655    1.2881223046   -0.7706248535
H       -0.5875006500   -2.9239582533    1.2851061787
19   
torsion grid (180,)
C       -0.3528448883    1.8682937581    3.3579912366
C       -0.7150676051    0.7298892102    2.5574397168
C        0.5764949121    2.5610389707    2.6408880263
C        0.0284809360    0.8015643466    1.4108281274
C       -0.2589214273   -1.4274127301    0.1487031101
C       -0.3574527575    0.7541592336   -1.1488089924
C        1.0797985506    0.4330996211   -0.9343917705
C        0.0704282279    0.0280195612    0.1478284440
O       -0.2678830413   -2.1260693540   -0.8506961257
O        0.8226512423    1.9260142181    1.4506239915
O       -0.5575660105   -1.9319701835    1.3735960217
H       -0.7339425788    2.1296230717    4.3365626183
H       -1.4206365027   -0.0483654872    2.8065467668
H        1.1420124813    3.4647332045    2.8162922362
H       -0.6853468367    1.7788255209   -1.0086704648
H       -0.9166734833    0.1593821920   -1.8627787366
H        1.5032691983   -0.3873213260   -1.5028260489
H        1.7575968983    1.2342859367   -0.6652254556
H       -0.7431193013   -2.8796258127    1.2259200821
