65
1 1 C25FH36N2O
C                    -4.216930783062     2.821116064482    -1.158650558143
C                    -3.498956330721     4.544322473141     0.383553039901
C                    -2.901048710787     2.370811589915    -1.282299533967
C                    -2.177272460052     4.100147579916     0.276362385514
C                    -4.536037775275     3.901558776520    -0.318760936775
C                    -5.952561214274     4.338784885039    -0.118541653725
C                    -6.853260520417     3.503848605785     0.580603371684
C                    -6.380200494439     5.599250376790    -0.554606615150
C                    -1.903610926228     3.013839203086    -0.550721422528
C                    -8.170323467513     3.961932535693     0.789681705670
C                    -7.692923325849     6.003362803301    -0.227015658100
C                    -4.276211780711     1.902918000421     5.702348295253
C                    -5.688532033919     1.608252645215     5.177886662084
C                    -3.368674658323     2.459629687807     4.596458350755
C                    -5.658978978983     0.673120248942     3.957440016970
C                    -3.326696035637     1.517572245716     3.383272292143
C                    -4.724202766598     1.178408008441     2.852763920324
C                   -10.653020450317     3.505697889632     1.068149988936
C                    -9.077303032917     3.331207726450     3.041141995435
C                    -9.029171116458     7.982722457385     0.588024611096
C                    -9.110938372527     7.266559870771    -1.848495357577
C                    -6.377449063991     2.186660058477     1.140776132032
C                    -5.443356723191     6.505563866839    -1.314947275441
C                    -9.231252939245     3.142536778212     1.517833098331
C                    -8.238908972181     7.374692889227    -0.581408440725
N                    -8.545165726641     5.182888286326     0.399167709986
N                    -5.319081307385     2.424448642731     2.203809548853
O                    -4.802862048489     7.369891399806    -0.360810924300
F                    -0.634140187753     2.573177221023    -0.651960796542
H                    -5.001076511926     2.341386304816    -1.738864698822
H                    -3.728155395160     5.414833425939     0.991175273902
H                    -2.640864807217     1.545578679711    -1.937949706396
H                    -1.368209437954     4.592033233333     0.807705534383
H                    -3.838022664921     0.976897697042     6.095380830494
H                    -4.326055045685     2.605698002300     6.539367072044
H                    -6.302061192658     1.152135561164     5.960279898904
H                    -6.194686209973     2.554525317170     4.931921062234
H                    -3.719191196712     3.458218607427     4.295725163896
H                    -2.352090088675     2.605421194993     4.972991891999
H                    -5.281176333201    -0.308644301490     4.262327446020
H                    -6.668137747710     0.501018532392     3.567214221779
H                    -2.708447732742     1.930231741447     2.576431877831
H                    -2.859652860380     0.570053266178     3.673619466058
H                    -4.652341781998     0.450815532750     2.040096846873
H                   -10.895752576322     4.537587989330     1.327995653017
H                   -11.373943827332     2.841532319240     1.554770376733
H                   -10.764190681373     3.399500014026    -0.014611688767
H                    -9.199949942899     4.385611940456     3.306908702702
H                    -8.093173488986     3.007715781366     3.405362371461
H                    -9.832288885512     2.751926562237     3.581244725799
H                    -9.903402185047     7.373636281090     0.828413857919
H                    -9.368390827380     8.988247953594     0.321107842997
H                    -8.407911583564     8.062204080662     1.485982932749
H                    -9.963840874263     6.605425739656    -1.666782465230
H                    -8.546207523107     6.866824438306    -2.698067038029
H                    -9.493919557075     8.252238178811    -2.130129485840
H                    -7.175240145825     1.620566508947     1.612165545556
H                    -5.898096380130     1.551126901677     0.396042971475
H                    -4.698378759964     5.908167485008    -1.853435951811
H                    -5.998847318287     7.088894580824    -2.056873246147
H                    -9.082268450854     2.081872466597     1.283898501119
H                    -7.396802357597     8.038768562995    -0.788962453297
H                    -5.715119267552     3.038166934698     2.923821322871
H                    -4.564416628314     2.966444943784     1.755418055194
H                    -4.280474022679     8.028448437905    -0.847662864169
