65
0 1 C28H32O5
C                     3.843610882101     3.924792323122    -2.083564182638
C                     3.912846015297     3.075054629195    -1.217672592341
C                     6.592857976698     7.384892727045     0.601160477540
C                     5.687239333370     6.625610601095    -0.144884820245
C                     3.835054044270     4.809897480672    -4.404108731885
C                     3.669627607186     7.180494737941    -4.765428079065
C                     3.769007785863     5.005571168525    -3.012227281676
C                     4.175737792739     8.544462921096    -0.161508356099
C                     3.600020361867     7.415982586686    -3.388157317478
C                     6.333154862375     8.703697222800     0.973415700412
C                     3.786014800566     5.885688566276    -5.292643243516
C                     4.490022160192     7.221096176936    -0.507163449290
C                     3.646081459730     6.318413593984    -2.521927889866
C                     5.102908029947     9.291206992096     0.591284273921
C                     2.803444143906     9.015747557532    -0.549351202809
C                     3.525818212618     8.837523117777    -2.879749052885
C                     2.830360250591     3.530102807032     1.547069064990
C                     4.351259655686     3.613252914279     1.854467730953
C                     2.650926371030     2.231095857331     0.741297657437
C                     5.033481281683     2.552558709443     0.947350224925
C                     3.954873094740     2.136704777271    -0.091127776496
C                     3.821898862858     5.665134331255    -6.787633571448
C                     8.480380915577    12.218982120706    -0.812937578258
C                     9.283495530735     9.825328199610    -0.694460261898
C                     4.115747718795    11.486681158489     0.217465856276
C                     7.828505866910    10.804451303785     1.165045130265
C                     7.386781180589     9.456468564020     1.764624632679
C                     8.148890970256    10.797096888872    -0.338738424249
O                     1.955604608633     9.341287021538     0.251131189651
O                     3.505771789229     6.480706455298    -1.152607068642
O                     2.507442319903     9.055230342362    -1.880531354319
O                     6.890694304629     9.626118232129     3.103564876936
O                     4.923826952832    10.582945719267     0.976890098057
H                     7.534496273395     6.935442175159     0.906487599935
H                     5.881811803447     5.594961559543    -0.421865189490
H                     3.929496242849     3.794633515088    -4.779586696888
H                     3.624073953225     8.028920088261    -5.446392755726
H                     4.497172714877     9.161111224943    -2.493182925573
H                     3.252474666672     9.501867417772    -3.701886419285
H                     2.216792573043     3.541347118953     2.452441138198
H                     2.526440078106     4.384173467461     0.935164385036
H                     4.729975867712     4.617345631440     1.649936563821
H                     4.559586695618     3.404425023992     2.908068664537
H                     2.607134512048     1.362907399810     1.410486595963
H                     1.751718646107     2.226323324487     0.119847483161
H                     5.945719460950     2.917993017990     0.468454448544
H                     5.304650057463     1.666387243938     1.531580762423
H                     4.128193665159     1.122230434046    -0.466085184585
H                     2.813515391661     5.715272676025    -7.215292484088
H                     4.428339803988     6.425710591824    -7.289327281043
H                     4.236885933966     4.684443783014    -7.035897932976
H                     9.380728848052    12.599314154178    -0.314917379817
H                     8.663669009727    12.243345286024    -1.892964865019
H                     7.660693957169    12.912668344514    -0.594072074718
H                    10.196660944893    10.071014584396    -0.137902681499
H                     9.019086279432     8.788155307943    -0.468594632879
H                     9.521269372111     9.878046844210    -1.762645853876
H                     4.521685642638    12.480753598242     0.417424408423
H                     3.071320442582    11.440098535317     0.529559816377
H                     4.191974796391    11.281300857729    -0.856541076611
H                     8.726723099097    11.129898638039     1.712550054954
H                     7.044720560645    11.537757051815     1.365872527891
H                     8.267325365053     8.800267115940     1.803621786292
H                     7.246049173757    10.468346986105    -0.870082874894
H                     7.432784550511    10.305506431670     3.536030454350
