60
0 1 C27H26N4O3
C                    10.355892584836    -6.459786312708     2.601858652300
C                     8.230934811377    -5.889456932445     1.493703707629
C                     8.960831393437    -4.601490185724     3.420781632277
C                     7.091530396635    -5.095964706350     1.403792901131
C                     7.816648090432    -3.815938284842     3.320433276266
C                     4.989185291448    -2.737349449909     3.362230999723
C                     5.128634540972    -2.839817044229     0.954287912786
C                     3.850591126393    -1.944302912735     3.268359778062
C                     3.995416101987    -2.033624834958     0.856062451699
C                     2.980681308322     0.977622082434     0.303438563015
C                     0.518231391738     1.044755985221    -0.986764597726
C                     9.176758026668    -5.646234687799     2.505120173884
C                     6.861779082860    -4.045288990302     2.311993934540
C                     5.648912022854    -3.202583368282     2.208149474035
C                     3.338829841531    -1.579062949811     2.010709763077
C                     1.930878771714     0.160211295130     0.750435653556
C                     0.684202368048     0.191796009547     0.108169081882
C                     2.797943627265     1.850431140731    -0.770895639519
C                     1.548711302962     1.870237497586    -1.434989273561
C                     2.126512464353    -0.726875467029     1.925687871367
C                     0.064120714831     0.846743942651     4.015340650573
C                    -0.419889453456    -0.707100003540     0.602893305359
C                    -0.932073418614    -0.306547161621     2.000825410129
C                    -1.778355918737    -1.436937688175     2.608154882129
C                    -1.358938200306     2.241995780724     5.420341261101
C                     4.994471702990     2.767596753595    -0.539785007075
C                     2.053603465454     2.509524563434    -3.672894895454
N                    11.313700129335    -7.119995584937     2.679160409434
N                     1.304301949788    -0.808746124325     2.920442912680
N                     0.199269536959     0.088004842479     2.853478685274
N                    -1.164754432057     1.470789810522     4.195255763890
O                     1.008317022414     1.032700994980     4.780410361216
O                     3.751614133123     2.713339849052    -1.237316804007
O                     1.291940073808     2.729327430318    -2.474730685573
H                     8.391323714254    -6.703239649042     0.793076811401
H                     9.694662974277    -4.407489772086     4.197094273689
H                     6.354578003779    -5.311556264572     0.635890822385
H                     7.674376823513    -2.995106477998     4.016962382928
H                     5.359198623317    -3.021465747380     4.343524497769
H                     5.631708566987    -3.163952738681     0.047439493370
H                     3.339400479776    -1.592211738762     4.158530637923
H                     3.617544483248    -1.756576741614    -0.123439358147
H                     3.928359088649     0.940956711158     0.827385227381
H                    -0.428957439430     1.091942045041    -1.517866314784
H                    -1.266515648885    -0.698035531302    -0.089660844351
H                    -0.059978596090    -1.741646228870     0.647828144781
H                    -1.534533079124     0.598749435041     1.875559300500
H                    -1.158935610032    -2.325544607124     2.760690207813
H                    -2.606878062188    -1.700312032899     1.941631134041
H                    -2.199423648754    -1.158393769610     3.579381027164
H                    -1.374033551751     1.612142722143     6.318760718359
H                    -2.303782543592     2.786303263244     5.341561649604
H                    -0.544046947412     2.959013829925     5.525657760312
H                     5.585171479514     3.531993075654    -1.045853800387
H                     5.522926951900     1.807620143460    -0.588030712509
H                     4.848173614460     3.053523334553     0.508384832626
H                     1.676603470375     3.228588469941    -4.402452338423
H                     1.890304087919     1.490689239065    -4.046239387280
H                     3.120112200688     2.677408621196    -3.503385681561
H                    -1.986453343386     0.996691956907     3.849157744082
