
  -OEChem-05262117483D

 68 70  0     0  0  0  0  0  0999 V2000
   -9.5333   -1.6400    6.9490 C   0  0  0  0  0  0  0  0  0  0  0  0
   -7.1958   -1.1556    6.4538 C   0  0  0  0  0  0  0  0  0  0  0  0
   -5.8326   -1.3617    6.6447 C   0  0  0  0  0  0  0  0  0  0  0  0
   -6.3314   -3.0756    8.2879 C   0  0  0  0  0  0  0  0  0  0  0  0
   -8.1392   -1.9002    7.1792 C   0  0  0  0  0  0  0  0  0  0  0  0
   -7.6942   -2.8649    8.1061 C   0  0  0  0  0  0  0  0  0  0  0  0
   -5.4037   -2.3285    7.5563 C   0  0  0  0  0  0  0  0  0  0  0  0
   -3.4364   -2.5295    9.0470 C   0  0  0  0  0  0  0  0  0  0  0  0
   -3.0524   -2.8133    6.7719 C   0  0  0  0  0  0  0  0  0  0  0  0
   -2.0549    1.3051    0.4096 C   0  0  0  0  0  0  0  0  0  0  0  0
   -1.8646   -0.3719    2.1954 C   0  0  0  0  0  0  0  0  0  0  0  0
   -0.7052    1.7565    2.4966 C   0  0  0  0  0  0  0  0  0  0  0  0
   -0.6014   -1.1045    2.6374 C   0  0  0  0  0  0  0  0  0  0  0  0
    0.5426    0.9865    2.9340 C   0  0  0  0  0  0  0  0  0  0  0  0
   -1.9437   -2.7949    8.8545 C   0  0  0  0  0  0  0  0  0  0  0  0
   -1.5628   -4.0915    9.5874 C   0  0  0  0  0  0  0  0  0  0  0  0
   -1.1349   -1.5952    9.3689 C   0  0  0  0  0  0  0  0  0  0  0  0
   -1.9559    4.3899   -1.9874 C   0  0  0  0  0  0  0  0  0  0  0  0
   -1.6907    2.6952   -0.1153 C   0  0  0  0  0  0  0  0  0  0  0  0
   -2.3309    2.9964   -1.4723 C   0  0  0  0  0  0  0  0  0  0  0  0
   -0.0675   -1.8962    6.0173 C   0  0  0  0  0  0  0  0  0  0  0  0
    0.9917   -2.1965    4.9529 C   0  0  0  0  0  0  0  0  0  0  0  0
   -0.6123   -3.1723    6.6697 C   0  0  0  0  0  0  0  0  0  0  0  0
    1.3489   -0.9652    4.1091 C   0  0  0  0  0  0  0  0  0  0  0  0
   -8.6910   -3.6804    8.9002 C   0  0  0  0  0  0  0  0  0  0  0  0
  -10.6501   -1.3929    6.7311 N   0  0  0  0  0  0  0  0  0  0  0  0
   -4.0155   -2.5459    7.7792 N   0  0  0  0  0  0  0  0  0  0  0  0
   -1.8598   -2.9426    7.3956 N   0  0  0  0  0  0  0  0  0  0  0  0
   -1.5304    0.9311    1.6239 N   0  0  0  0  0  0  0  0  0  0  0  0
    0.1756   -0.2777    3.5674 N   0  0  0  0  0  0  0  0  0  0  0  0
   -4.0083   -2.3420   10.1029 O   0  0  0  0  0  0  0  0  0  0  0  0
   -2.7851    0.5509   -0.2372 O   0  0  0  0  0  0  0  0  0  0  0  0
   -8.0753   -4.5580    9.7261 F   0  0  0  0  0  0  0  0  0  0  0  0
   -9.4800   -2.8933    9.6675 F   0  0  0  0  0  0  0  0  0  0  0  0
   -9.5044   -4.3971    8.0896 F   0  0  0  0  0  0  0  0  0  0  0  0
   -3.3666   -2.9641    5.1477 S   0  0  0  0  0  0  0  0  0  0  0  0
   -7.5412   -0.4109    5.7445 H   0  0  0  0  0  0  0  0  0  0  0  0
   -5.1080   -0.7829    6.0851 H   0  0  0  0  0  0  0  0  0  0  0  0
   -5.9892   -3.8145    9.0010 H   0  0  0  0  0  0  0  0  0  0  0  0
   -2.4031   -0.9446    1.4416 H   0  0  0  0  0  0  0  0  0  0  0  0
   -2.5215   -0.2346    3.0651 H   0  0  0  0  0  0  0  0  0  0  0  0
   -1.2823    2.0360    3.3899 H   0  0  0  0  0  0  0  0  0  0  0  0
   -0.4060    2.6717    1.9887 H   0  0  0  0  0  0  0  0  0  0  0  0
   -0.9070   -2.0264    3.1372 H   0  0  0  0  0  0  0  0  0  0  0  0
   -0.0023   -1.3792    1.7481 H   0  0  0  0  0  0  0  0  0  0  0  0
    1.1940    0.8281    2.0520 H   0  0  0  0  0  0  0  0  0  0  0  0
    1.1008    1.5940    3.6552 H   0  0  0  0  0  0  0  0  0  0  0  0
   -0.4921   -4.2908    9.4890 H   0  0  0  0  0  0  0  0  0  0  0  0
   -2.1157   -4.9443    9.1837 H   0  0  0  0  0  0  0  0  0  0  0  0
   -1.8004   -3.9885   10.6490 H   0  0  0  0  0  0  0  0  0  0  0  0
   -0.0634   -1.7789    9.2487 H   0  0  0  0  0  0  0  0  0  0  0  0
   -1.3472   -1.4449   10.4302 H   0  0  0  0  0  0  0  0  0  0  0  0
   -1.3966   -0.6838    8.8249 H   0  0  0  0  0  0  0  0  0  0  0  0
   -0.8712    4.4929   -2.1126 H   0  0  0  0  0  0  0  0  0  0  0  0
   -2.2846    5.1753   -1.2960 H   0  0  0  0  0  0  0  0  0  0  0  0
   -2.4212    4.5885   -2.9586 H   0  0  0  0  0  0  0  0  0  0  0  0
   -0.5989    2.7789   -0.1947 H   0  0  0  0  0  0  0  0  0  0  0  0
   -1.9994    3.4523    0.6173 H   0  0  0  0  0  0  0  0  0  0  0  0
   -3.4176    2.9037   -1.3845 H   0  0  0  0  0  0  0  0  0  0  0  0
   -2.0240    2.2307   -2.1911 H   0  0  0  0  0  0  0  0  0  0  0  0
   -0.8963   -1.3665    5.5450 H   0  0  0  0  0  0  0  0  0  0  0  0
    0.3416   -1.2248    6.7814 H   0  0  0  0  0  0  0  0  0  0  0  0
    1.9140   -2.5720    5.4136 H   0  0  0  0  0  0  0  0  0  0  0  0
    0.6320   -3.0013    4.3019 H   0  0  0  0  0  0  0  0  0  0  0  0
    0.1067   -3.6042    7.3709 H   0  0  0  0  0  0  0  0  0  0  0  0
   -0.8157   -3.9235    5.9016 H   0  0  0  0  0  0  0  0  0  0  0  0
    1.8844   -0.2436    4.7382 H   0  0  0  0  0  0  0  0  0  0  0  0
    2.0489   -1.2701    3.3074 H   0  0  0  0  0  0  0  0  0  0  0  0
  1  5  1  0  0  0  0
  1 26  3  0  0  0  0
  2  3  1  0  0  0  0
  2  5  2  0  0  0  0
  2 37  1  0  0  0  0
  3  7  2  0  0  0  0
  3 38  1  0  0  0  0
  4  6  2  0  0  0  0
  4  7  1  0  0  0  0
  4 39  1  0  0  0  0
  5  6  1  0  0  0  0
  6 25  1  0  0  0  0
  7 27  1  0  0  0  0
  8 15  1  0  0  0  0
  8 27  1  0  0  0  0
  8 31  2  0  0  0  0
  9 27  1  0  0  0  0
  9 28  1  0  0  0  0
  9 36  2  0  0  0  0
 10 19  1  0  0  0  0
 10 29  1  0  0  0  0
 10 32  2  0  0  0  0
 11 13  1  0  0  0  0
 11 29  1  0  0  0  0
 11 40  1  0  0  0  0
 11 41  1  0  0  0  0
 12 14  1  0  0  0  0
 12 29  1  0  0  0  0
 12 42  1  0  0  0  0
 12 43  1  0  0  0  0
 13 30  1  0  0  0  0
 13 44  1  0  0  0  0
 13 45  1  0  0  0  0
 14 30  1  0  0  0  0
 14 46  1  0  0  0  0
 14 47  1  0  0  0  0
 15 16  1  0  0  0  0
 15 17  1  0  0  0  0
 15 28  1  0  0  0  0
 16 48  1  0  0  0  0
 16 49  1  0  0  0  0
 16 50  1  0  0  0  0
 17 51  1  0  0  0  0
 17 52  1  0  0  0  0
 17 53  1  0  0  0  0
 18 20  1  0  0  0  0
 18 54  1  0  0  0  0
 18 55  1  0  0  0  0
 18 56  1  0  0  0  0
 19 20  1  0  0  0  0
 19 57  1  0  0  0  0
 19 58  1  0  0  0  0
 20 59  1  0  0  0  0
 20 60  1  0  0  0  0
 21 22  1  0  0  0  0
 21 23  1  0  0  0  0
 21 61  1  0  0  0  0
 21 62  1  0  0  0  0
 22 24  1  0  0  0  0
 22 63  1  0  0  0  0
 22 64  1  0  0  0  0
 23 28  1  0  0  0  0
 23 65  1  0  0  0  0
 23 66  1  0  0  0  0
 24 30  1  0  0  0  0
 24 67  1  0  0  0  0
 24 68  1  0  0  0  0
 25 33  1  0  0  0  0
 25 34  1  0  0  0  0
 25 35  1  0  0  0  0
M  END
$$$$
