
  -OEChem-05262117483D

 60 63  0     1  0  0  0  0  0999 V2000
   10.3338   -0.4333   -5.2418 C   0  0  0  0  0  0  0  0  0  0  0  0
    7.9650   -1.0867   -5.0631 C   0  0  0  0  0  0  0  0  0  0  0  0
    8.9130    0.4422   -3.4297 C   0  0  0  0  0  0  0  0  0  0  0  0
    6.7375   -1.0105   -4.4122 C   0  0  0  0  0  0  0  0  0  0  0  0
    7.6801    0.5096   -2.7882 C   0  0  0  0  0  0  0  0  0  0  0  0
    4.8072    1.0711   -2.0164 C   0  0  0  0  0  0  0  0  0  0  0  0
    4.4367   -1.2690   -2.4613 C   0  0  0  0  0  0  0  0  0  0  0  0
    3.5740    1.1449   -1.3729 C   0  0  0  0  0  0  0  0  0  0  0  0
    3.2107   -1.1985   -1.8025 C   0  0  0  0  0  0  0  0  0  0  0  0
    2.2324   -1.4072    1.1560 C   0  0  0  0  0  0  0  0  0  0  0  0
   -0.2513   -2.0872    2.1039 C   0  0  0  0  0  0  0  0  0  0  0  0
    9.0644   -0.3589   -4.5750 C   0  0  0  0  0  0  0  0  0  0  0  0
    6.5701   -0.2132   -3.2644 C   0  0  0  0  0  0  0  0  0  0  0  0
    5.2613   -0.1364   -2.5767 C   0  0  0  0  0  0  0  0  0  0  0  0
    2.7594    0.0103   -1.2514 C   0  0  0  0  0  0  0  0  0  0  0  0
    1.0985   -0.8729    0.4935 C   0  0  0  0  0  0  0  0  0  0  0  0
   -0.1802   -1.2142    1.0075 C   0  0  0  0  0  0  0  0  0  0  0  0
    2.1437   -2.2473    2.2549 C   0  0  0  0  0  0  0  0  0  0  0  0
    0.8706   -2.6186    2.7299 C   0  0  0  0  0  0  0  0  0  0  0  0
    1.4187    0.1022   -0.5927 C   0  0  0  0  0  0  0  0  0  0  0  0
   -1.1015    2.5437   -0.5198 C   0  0  0  0  0  0  0  0  0  0  0  0
   -1.5183   -0.7634    0.4603 C   0  0  0  0  0  0  0  0  0  0  0  0
   -1.4362    0.0490   -0.8186 C   0  0  1  0  0  0  0  0  0  0  0  0
   -2.8146    0.3285   -1.4230 C   0  0  0  0  0  0  0  0  0  0  0  0
   -0.6355    4.9170   -0.8971 C   0  0  0  0  0  0  0  0  0  0  0  0
    3.5647   -2.1789    4.1448 C   0  0  0  0  0  0  0  0  0  0  0  0
    1.1897   -4.7840    3.6545 C   0  0  0  0  0  0  0  0  0  0  0  0
   11.3647   -0.4937   -5.7830 N   0  0  0  0  0  0  0  0  0  0  0  0
    0.7317    1.1224   -1.0054 N   0  0  0  0  0  0  0  0  0  0  0  0
   -0.5826    1.2382   -0.5874 N   0  0  0  0  0  0  0  0  0  0  0  0
   -0.2058    3.5299   -0.8287 N   0  0  0  0  0  0  0  0  0  0  0  0
   -2.2542    2.7581   -0.1416 O   0  0  0  0  0  0  0  0  0  0  0  0
    3.3048   -2.7161    2.8358 O   0  0  0  0  0  0  0  0  0  0  0  0
    0.6983   -3.4404    3.8178 O   0  0  0  0  0  0  0  0  0  0  0  0
    8.0783   -1.6977   -5.9534 H   0  0  0  0  0  0  0  0  0  0  0  0
    9.7638    0.9971   -3.0461 H   0  0  0  0  0  0  0  0  0  0  0  0
    5.8887   -1.5548   -4.8156 H   0  0  0  0  0  0  0  0  0  0  0  0
    7.5831    1.1095   -1.8881 H   0  0  0  0  0  0  0  0  0  0  0  0
    5.4129    1.9684   -2.1093 H   0  0  0  0  0  0  0  0  0  0  0  0
    4.7707   -2.2225   -2.8608 H   0  0  0  0  0  0  0  0  0  0  0  0
    3.2317    2.0875   -0.9567 H   0  0  0  0  0  0  0  0  0  0  0  0
    2.6007   -2.0925   -1.7076 H   0  0  0  0  0  0  0  0  0  0  0  0
    3.2314   -1.1401    0.8339 H   0  0  0  0  0  0  0  0  0  0  0  0
   -1.2240   -2.3777    2.4934 H   0  0  0  0  0  0  0  0  0  0  0  0
   -2.1437   -1.6486    0.2873 H   0  0  0  0  0  0  0  0  0  0  0  0
   -2.0344   -0.1601    1.2157 H   0  0  0  0  0  0  0  0  0  0  0  0
   -0.8781   -0.5324   -1.5619 H   0  0  0  0  0  0  0  0  0  0  0  0
   -3.4941    0.7894   -0.7077 H   0  0  0  0  0  0  0  0  0  0  0  0
   -3.2333   -0.6269   -1.7583 H   0  0  0  0  0  0  0  0  0  0  0  0
   -2.7375    0.9878   -2.2916 H   0  0  0  0  0  0  0  0  0  0  0  0
   -1.1428    5.1525   -1.8420 H   0  0  0  0  0  0  0  0  0  0  0  0
    0.2366    5.5676   -0.7897 H   0  0  0  0  0  0  0  0  0  0  0  0
   -1.3308    5.1148   -0.0801 H   0  0  0  0  0  0  0  0  0  0  0  0
    4.5044   -2.6253    4.4752 H   0  0  0  0  0  0  0  0  0  0  0  0
    2.7632   -2.4351    4.8449 H   0  0  0  0  0  0  0  0  0  0  0  0
    3.6735   -1.0889    4.0929 H   0  0  0  0  0  0  0  0  0  0  0  0
    0.9668   -5.2998    4.5900 H   0  0  0  0  0  0  0  0  0  0  0  0
    2.2666   -4.7947    3.4660 H   0  0  0  0  0  0  0  0  0  0  0  0
    0.6648   -5.2787    2.8287 H   0  0  0  0  0  0  0  0  0  0  0  0
    0.6416    3.2339   -1.2978 H   0  0  0  0  0  0  0  0  0  0  0  0
  1 12  1  0  0  0  0
  1 28  3  0  0  0  0
  2  4  1  0  0  0  0
  2 12  2  0  0  0  0
  2 35  1  0  0  0  0
  3  5  2  0  0  0  0
  3 12  1  0  0  0  0
  3 36  1  0  0  0  0
  4 13  2  0  0  0  0
  4 37  1  0  0  0  0
  5 13  1  0  0  0  0
  5 38  1  0  0  0  0
  6  8  2  0  0  0  0
  6 14  1  0  0  0  0
  6 39  1  0  0  0  0
  7  9  1  0  0  0  0
  7 14  2  0  0  0  0
  7 40  1  0  0  0  0
  8 15  1  0  0  0  0
  8 41  1  0  0  0  0
  9 15  2  0  0  0  0
  9 42  1  0  0  0  0
 10 16  2  0  0  0  0
 10 18  1  0  0  0  0
 10 43  1  0  0  0  0
 11 17  2  0  0  0  0
 11 19  1  0  0  0  0
 11 44  1  0  0  0  0
 13 14  1  0  0  0  0
 15 20  1  0  0  0  0
 16 17  1  0  0  0  0
 16 20  1  0  0  0  0
 17 22  1  0  0  0  0
 18 19  2  0  0  0  0
 18 33  1  0  0  0  0
 19 34  1  0  0  0  0
 20 29  2  0  0  0  0
 21 30  1  0  0  0  0
 21 31  1  0  0  0  0
 21 32  2  0  0  0  0
 22 23  1  0  0  0  0
 22 45  1  0  0  0  0
 22 46  1  0  0  0  0
 23 24  1  0  0  0  0
 23 30  1  0  0  0  0
 23 47  1  0  0  0  0
 24 48  1  0  0  0  0
 24 49  1  0  0  0  0
 24 50  1  0  0  0  0
 25 31  1  0  0  0  0
 25 51  1  0  0  0  0
 25 52  1  0  0  0  0
 25 53  1  0  0  0  0
 26 33  1  0  0  0  0
 26 54  1  0  0  0  0
 26 55  1  0  0  0  0
 26 56  1  0  0  0  0
 27 34  1  0  0  0  0
 27 57  1  0  0  0  0
 27 58  1  0  0  0  0
 27 59  1  0  0  0  0
 29 30  1  0  0  0  0
 31 60  1  0  0  0  0
M  END
$$$$
