
  -OEChem-05262117483D

 65 67  0     0  0  0  0  0  0999 V2000
   -2.4567    3.2646   -3.0250 C   0  0  0  0  0  0  0  0  0  0  0  0
   -1.7548    4.4191   -1.0211 C   0  0  0  0  0  0  0  0  0  0  0  0
   -1.1719    2.7396   -3.1800 C   0  0  0  0  0  0  0  0  0  0  0  0
   -0.4626    3.9007   -1.1590 C   0  0  0  0  0  0  0  0  0  0  0  0
   -2.7671    4.1088   -1.9470 C   0  0  0  0  0  0  0  0  0  0  0  0
   -4.1392    4.6807   -1.7673 C   0  0  0  0  0  0  0  0  0  0  0  0
   -5.1518    3.9016   -1.1653 C   0  0  0  0  0  0  0  0  0  0  0  0
   -4.4119    6.0025   -2.1444 C   0  0  0  0  0  0  0  0  0  0  0  0
   -0.1967    3.0640   -2.2388 C   0  0  0  0  0  0  0  0  0  0  0  0
   -6.4159    4.4899   -0.9505 C   0  0  0  0  0  0  0  0  0  0  0  0
   -5.6951    6.5187   -1.8467 C   0  0  0  0  0  0  0  0  0  0  0  0
   -0.8771    0.6305    1.0665 C   0  0  0  0  0  0  0  0  0  0  0  0
   -1.4294    1.7058    2.0137 C   0  0  0  0  0  0  0  0  0  0  0  0
   -1.7986    0.3988   -0.1397 C   0  0  0  0  0  0  0  0  0  0  0  0
   -2.8782    1.4067    2.4370 C   0  0  0  0  0  0  0  0  0  0  0  0
   -3.2355    0.0862    0.3023 C   0  0  0  0  0  0  0  0  0  0  0  0
   -3.8007    1.1590    1.2367 C   0  0  0  0  0  0  0  0  0  0  0  0
   -8.9396    4.3416   -0.6967 C   0  0  0  0  0  0  0  0  0  0  0  0
   -7.4183    3.7543    1.2348 C   0  0  0  0  0  0  0  0  0  0  0  0
   -6.3787    8.6811   -0.7984 C   0  0  0  0  0  0  0  0  0  0  0  0
   -7.3147    8.0006   -3.0651 C   0  0  0  0  0  0  0  0  0  0  0  0
   -4.8555    2.4865   -0.7443 C   0  0  0  0  0  0  0  0  0  0  0  0
   -3.3705    6.8563   -2.8436 C   0  0  0  0  0  0  0  0  0  0  0  0
   -7.5809    3.7491   -0.2994 C   0  0  0  0  0  0  0  0  0  0  0  0
   -6.0953    7.9547   -2.1271 C   0  0  0  0  0  0  0  0  0  0  0  0
   -6.6429    5.7648   -1.2750 N   0  0  0  0  0  0  0  0  0  0  0  0
   -3.9781    2.4836    0.4985 N   0  3  0  0  0  0  0  0  0  0  0  0
   -2.8688    7.9088   -2.0129 O   0  0  0  0  0  0  0  0  0  0  0  0
    1.0391    2.5443   -2.3717 F   0  0  0  0  0  0  0  0  0  0  0  0
   -3.2218    3.0320   -3.7610 H   0  0  0  0  0  0  0  0  0  0  0  0
   -1.9719    5.0913   -0.1929 H   0  0  0  0  0  0  0  0  0  0  0  0
   -0.9194    2.0927   -4.0145 H   0  0  0  0  0  0  0  0  0  0  0  0
    0.3274    4.1419   -0.4545 H   0  0  0  0  0  0  0  0  0  0  0  0
   -0.7656   -0.3109    1.6188 H   0  0  0  0  0  0  0  0  0  0  0  0
    0.1233    0.9124    0.7242 H   0  0  0  0  0  0  0  0  0  0  0  0
   -0.8058    1.7816    2.9092 H   0  0  0  0  0  0  0  0  0  0  0  0
   -1.3656    2.6907    1.5291 H   0  0  0  0  0  0  0  0  0  0  0  0
   -1.7845    1.2788   -0.7952 H   0  0  0  0  0  0  0  0  0  0  0  0
   -1.4228   -0.4273   -0.7503 H   0  0  0  0  0  0  0  0  0  0  0  0
   -2.9014    0.4969    3.0462 H   0  0  0  0  0  0  0  0  0  0  0  0
   -3.2788    2.2077    3.0713 H   0  0  0  0  0  0  0  0  0  0  0  0
   -3.8940   -0.0757   -0.5562 H   0  0  0  0  0  0  0  0  0  0  0  0
   -3.2487   -0.8502    0.8712 H   0  0  0  0  0  0  0  0  0  0  0  0
   -4.8081    0.8918    1.5694 H   0  0  0  0  0  0  0  0  0  0  0  0
   -9.0482    5.3621   -0.3250 H   0  0  0  0  0  0  0  0  0  0  0  0
   -9.7442    3.7278   -0.2802 H   0  0  0  0  0  0  0  0  0  0  0  0
   -9.0550    4.3704   -1.7835 H   0  0  0  0  0  0  0  0  0  0  0  0
   -7.3736    4.7808    1.6114 H   0  0  0  0  0  0  0  0  0  0  0  0
   -6.5068    3.2357    1.5644 H   0  0  0  0  0  0  0  0  0  0  0  0
   -8.2628    3.2512    1.7150 H   0  0  0  0  0  0  0  0  0  0  0  0
   -7.2017    8.1990   -0.2632 H   0  0  0  0  0  0  0  0  0  0  0  0
   -6.6555    9.7213   -0.9947 H   0  0  0  0  0  0  0  0  0  0  0  0
   -5.4928    8.6834   -0.1555 H   0  0  0  0  0  0  0  0  0  0  0  0
   -8.1745    7.5069   -2.6047 H   0  0  0  0  0  0  0  0  0  0  0  0
   -7.1057    7.5046   -4.0192 H   0  0  0  0  0  0  0  0  0  0  0  0
   -7.5834    9.0398   -3.2773 H   0  0  0  0  0  0  0  0  0  0  0  0
   -5.7519    1.9260   -0.4895 H   0  0  0  0  0  0  0  0  0  0  0  0
   -4.3021    1.9348   -1.5020 H   0  0  0  0  0  0  0  0  0  0  0  0
   -2.5537    6.2335   -3.2208 H   0  0  0  0  0  0  0  0  0  0  0  0
   -3.8165    7.3543   -3.7067 H   0  0  0  0  0  0  0  0  0  0  0  0
   -7.5726    2.7072   -0.6414 H   0  0  0  0  0  0  0  0  0  0  0  0
   -5.2627    8.4706   -2.6066 H   0  0  0  0  0  0  0  0  0  0  0  0
   -4.3668    3.1716    1.1533 H   0  0  0  0  0  0  0  0  0  0  0  0
   -3.0578    2.8519    0.2192 H   0  0  0  0  0  0  0  0  0  0  0  0
   -2.2599    7.5237   -1.3637 H   0  0  0  0  0  0  0  0  0  0  0  0
  1  3  1  0  0  0  0
  1  5  2  0  0  0  0
  1 30  1  0  0  0  0
  2  4  2  0  0  0  0
  2  5  1  0  0  0  0
  2 31  1  0  0  0  0
  3  9  2  0  0  0  0
  3 32  1  0  0  0  0
  4  9  1  0  0  0  0
  4 33  1  0  0  0  0
  5  6  1  0  0  0  0
  6  7  1  0  0  0  0
  6  8  2  0  0  0  0
  7 10  2  0  0  0  0
  7 22  1  0  0  0  0
  8 11  1  0  0  0  0
  8 23  1  0  0  0  0
  9 29  1  0  0  0  0
 10 24  1  0  0  0  0
 10 26  1  0  0  0  0
 11 25  1  0  0  0  0
 11 26  2  0  0  0  0
 12 13  1  0  0  0  0
 12 14  1  0  0  0  0
 12 34  1  0  0  0  0
 12 35  1  0  0  0  0
 13 15  1  0  0  0  0
 13 36  1  0  0  0  0
 13 37  1  0  0  0  0
 14 16  1  0  0  0  0
 14 38  1  0  0  0  0
 14 39  1  0  0  0  0
 15 17  1  0  0  0  0
 15 40  1  0  0  0  0
 15 41  1  0  0  0  0
 16 17  1  0  0  0  0
 16 42  1  0  0  0  0
 16 43  1  0  0  0  0
 17 27  1  0  0  0  0
 17 44  1  0  0  0  0
 18 24  1  0  0  0  0
 18 45  1  0  0  0  0
 18 46  1  0  0  0  0
 18 47  1  0  0  0  0
 19 24  1  0  0  0  0
 19 48  1  0  0  0  0
 19 49  1  0  0  0  0
 19 50  1  0  0  0  0
 20 25  1  0  0  0  0
 20 51  1  0  0  0  0
 20 52  1  0  0  0  0
 20 53  1  0  0  0  0
 21 25  1  0  0  0  0
 21 54  1  0  0  0  0
 21 55  1  0  0  0  0
 21 56  1  0  0  0  0
 22 27  1  0  0  0  0
 22 57  1  0  0  0  0
 22 58  1  0  0  0  0
 23 28  1  0  0  0  0
 23 59  1  0  0  0  0
 23 60  1  0  0  0  0
 24 61  1  0  0  0  0
 25 62  1  0  0  0  0
 27 63  1  0  0  0  0
 27 64  1  0  0  0  0
 28 65  1  0  0  0  0
M  CHG  1  27   1
M  END
$$$$
