65
1 1 C25FH36N2O
C                    -2.456720805971     3.264560386233    -3.025035629761
C                    -1.754837971135     4.419147900586    -1.021109230594
C                    -1.171864107802     2.739611904739    -3.180037582718
C                    -0.462591546057     3.900702784756    -1.159021426700
C                    -2.767110773120     4.108751959027    -1.946995911436
C                    -4.139185802972     4.680706606550    -1.767327754539
C                    -5.151766982976     3.901598131430    -1.165280709376
C                    -4.411868136702     6.002539011970    -2.144372110545
C                    -0.196701969133     3.064025888194    -2.238814695423
C                    -6.415929486641     4.489908122503    -0.950513328785
C                    -5.695137350865     6.518658690299    -1.846706521642
C                    -0.877071051552     0.630501919801     1.066524536465
C                    -1.429394849132     1.705842993105     2.013655517980
C                    -1.798608536026     0.398783850129    -0.139708996157
C                    -2.878177608241     1.406704497646     2.436976754441
C                    -3.235451332144     0.086166327388     0.302314945168
C                    -3.800704654099     1.159018918400     1.236742546190
C                    -8.939600242817     4.341597266118    -0.696716551813
C                    -7.418325084860     3.754267898625     1.234824961440
C                    -6.378661980492     8.681113050721    -0.798442266143
C                    -7.314654321483     8.000594533950    -3.065050756282
C                    -4.855488039452     2.486508291704    -0.744259245323
C                    -3.370534393420     6.856319386949    -2.843642498036
C                    -7.580907289690     3.749069759134    -0.299441190116
C                    -6.095290992079     7.954688347423    -2.127052537323
N                    -6.642858269718     5.764794090128    -1.274954951166
N                    -3.978065471354     2.483650009793     0.498475259092
O                    -2.868775854325     7.908751034692    -2.012860789062
F                     1.039125534407     2.544252474064    -2.371712186026
H                    -3.221819467900     3.031997469269    -3.761013092984
H                    -1.971924899486     5.091307608222    -0.192908636383
H                    -0.919403259866     2.092667152518    -4.014465576678
H                     0.327423901096     4.141851972388    -0.454484450646
H                    -0.765595527579    -0.310908095139     1.618785192621
H                     0.123317171129     0.912393868494     0.724167058689
H                    -0.805814657207     1.781594123426     2.909232245846
H                    -1.365556392133     2.690732710682     1.529063598726
H                    -1.784474540819     1.278774811569    -0.795154720971
H                    -1.422842756830    -0.427346433497    -0.750302031019
H                    -2.901420590072     0.496911074758     3.046166136167
H                    -3.278838201223     2.207724597653     3.071288522613
H                    -3.893956278039    -0.075655190492    -0.556242153738
H                    -3.248702209963    -0.850191468677     0.871168466066
H                    -4.808089430313     0.891788284713     1.569381509864
H                    -9.048232539971     5.362111680361    -0.325010001040
H                    -9.744230188668     3.727847747405    -0.280196099777
H                    -9.054967150785     4.370361307250    -1.783507951018
H                    -7.373582246805     4.780811837383     1.611358444474
H                    -6.506820937886     3.235724308208     1.564365259164
H                    -8.262847001820     3.251207710594     1.714954032937
H                    -7.201742922776     8.199025605494    -0.263175913853
H                    -6.655462672906     9.721272518021    -0.994652470894
H                    -5.492791696196     8.683424729615    -0.155452166344
H                    -8.174546952542     7.506909365802    -2.604700291587
H                    -7.105655422289     7.504580705611    -4.019195727719
H                    -7.583419897171     9.039826253056    -3.277317218917
H                    -5.751896845564     1.925954169215    -0.489469377355
H                    -4.302115814814     1.934821755779    -1.502020240797
H                    -2.553733662771     6.233531960694    -3.220822423951
H                    -3.816509812104     7.354277946828    -3.706718548066
H                    -7.572599805452     2.707241494458    -0.641357693939
H                    -5.262745958804     8.470641276720    -2.606588935636
H                    -4.366759843573     3.171593644845     1.153317917681
H                    -3.057792947960     2.851907626929     0.219238674017
H                    -2.259865068524     7.523721415745    -1.363710622022
