65
0 1 C28H32O5
C                     2.932330809925     3.800345109935    -3.587851857823
C                     2.995761911599     2.795098103817    -2.908109490558
C                     5.383626761013     6.670279904685    -0.065949916404
C                     4.555103739128     6.078710203161    -1.020845912014
C                     3.007182693536     5.143638699309    -5.676548048676
C                     2.768804521201     7.532554806878    -5.554213961802
C                     2.861901403141     5.046261742129    -4.280194749406
C                     2.980790588708     7.926842693340    -0.745693558985
C                     2.619207870030     7.476920274136    -4.164608412816
C                     5.041040392926     7.870226907297     0.560370672625
C                     2.962130085725     6.377766940741    -6.327383735092
C                     3.360553232793     6.711961854751    -1.333110870439
C                     2.662230210095     6.225622354218    -3.540227522853
C                     3.834214382915     8.511481226468     0.211497086597
C                     1.619069217905     8.442786282660    -1.110151826626
C                     2.468724735903     8.760392866977    -3.380752561937
C                     1.790357742543     2.654967840265    -0.161028831586
C                     3.291994282236     2.695223509579     0.234926561061
C                     1.682959253807     1.543333322596    -1.219640560053
C                     4.045374076705     1.868201213096    -0.843683784926
C                     3.021996332202     1.649084583220    -1.992918507748
C                     3.086922708753     6.473222407843    -7.830792346386
C                     4.144256320795     6.967659917815     4.788575819582
C                     4.135549514143     9.401809156708     4.117840143695
C                     2.821390194152    10.730920130073     0.242480999668
C                     5.721320949289     7.754688138446     2.990233845992
C                     5.949295423577     8.441408268161     1.629663837798
C                     4.337717878570     7.959076814031     3.631976627479
O                     0.722011434154     8.585223197922    -0.308176360667
O                     2.442127971788     6.097428703965    -2.178203806651
O                     1.391003524049     8.744172257235    -2.419266547893
O                     7.304274198281     8.223256651138     1.189576219388
O                     3.586451967138     9.688755975453     0.859563847966
H                     6.328946035554     6.206631268940     0.196659687874
H                     4.805117507597     5.139499729172    -1.503262251461
H                     3.160820962113     4.230743033233    -6.245404749929
H                     2.726904925840     8.501709085547    -6.048813675172
H                     3.406082449350     9.018823553530    -2.879008120122
H                     2.216134281885     9.574034981189    -4.063402260547
H                     1.133568711964     2.474537012006     0.694916301526
H                     1.495892903166     3.610383138640    -0.604765894171
H                     3.652357977708     3.725867603325     0.272722879288
H                     3.455637074615     2.264202755287     1.227411485057
H                     1.638233391757     0.556729176692    -0.741927939246
H                     0.810417525253     1.645835832029    -1.869947159218
H                     4.960218675989     2.352031619885    -1.195423627565
H                     4.327829006449     0.887528228247    -0.445550849225
H                     3.241559587644     0.735875750071    -2.556433651903
H                     2.107451575310     6.635163085848    -8.296113282660
H                     3.731147664740     7.307653883789    -8.125649882879
H                     3.506570132428     5.556890947600    -8.254634679520
H                     4.900351069527     7.121285618433     5.568938714572
H                     3.159210945741     7.091936566603     5.251460027096
H                     4.224987633097     5.931059802269     4.442944253610
H                     4.873677982183     9.658333413567     4.888779525002
H                     4.225780970280    10.120587498025     3.299883070881
H                     3.139703939142     9.526288189321     4.556842938240
H                     3.174437638971    11.660349377168     0.693782724564
H                     1.755071348869    10.602999408259     0.433785842804
H                     3.004769555495    10.766720307193    -0.837411696161
H                     6.487446786518     8.119675472171     3.692295881399
H                     5.909755641069     6.683584065358     2.847693106162
H                     5.764011526994     9.516076397390     1.717916165875
H                     3.572943242431     7.743507094953     2.876304723090
H                     7.889712625097     8.472740115249     1.921942148691
