41
0 1 C16FH19N4O
C                     0.701261998841     1.720420253603     0.162287558958
C                    -4.676891815664    -1.442931736650    -0.121777408324
C                    -4.352714855973     0.540528876772    -1.455579532369
C                    -5.985737847202    -1.046233649080     0.173079175651
C                    -5.655670261430     0.955981470364    -1.173674661170
C                    -0.431004291589     2.429401175203    -3.507119286079
C                     1.412617253917     1.522978489437    -3.074520371883
C                    -3.847498604190    -0.661715146525    -0.936115639282
C                    -6.448954991850     0.150752194279    -0.361000618455
C                     0.562234106671     0.075430491265     1.956626386326
C                     2.440453909099    -0.010710419741     0.293072097877
C                    -2.416105042149    -1.058755807546    -1.221729921017
C                    -1.447358949614    -0.279062237059    -0.310936490788
C                     0.506856336004    -0.564005612052    -1.954950640853
C                     0.933342581361     0.294180554796     0.468050908586
C                     0.046817895360    -0.611505505709    -0.473539264735
N                     0.531046148159     2.855915022444    -0.022269687355
N                     0.915037854801     2.609688892778    -3.643090878226
N                    -0.788044912931     1.301853769632    -2.902515452429
N                     0.416207512509     0.724570852651    -2.618800033154
O                     0.327199826298    -1.959679664747    -0.057271007974
F                    -7.719530874595     0.546489010279    -0.082877972575
H                    -4.303189869924    -2.378905043137     0.288417783221
H                    -3.714794215643     1.154908111074    -2.086338547627
H                    -6.638458817391    -1.646691781459     0.799359393750
H                    -6.058419543322     1.882382352701    -1.571873061384
H                    -1.165441833253     3.140383196302    -3.862485881774
H                     2.461522194849     1.277803866640    -2.968796596724
H                     0.669125199131    -0.982955140947     2.202042880151
H                    -0.456317377626     0.395563822678     2.179985149436
H                     1.237374568991     0.657304809023     2.588848370192
H                     2.613032768864    -1.080629384592     0.429867555439
H                     2.816525552723     0.289145417761    -0.686639821781
H                     3.016273836305     0.536894905739     1.042933318987
H                    -2.189858347329    -0.842617297051    -2.267762884932
H                    -2.311963512142    -2.143347512338    -1.079368376466
H                    -1.728664665208    -0.467236102685     0.728941602406
H                    -1.595452340624     0.786347571736    -0.495761744191
H                    -0.085487763451    -1.286886897122    -2.518849914745
H                     1.543583512290    -0.893732582329    -2.012274561256
H                    -0.477003279923    -2.488612892972    -0.170485302425
