65
0 1 C28H32O5
C                     5.255176708526     1.369050522796     0.964712894340
C                     4.214985363591     0.742475171983     0.915883400607
C                     6.304384698663     0.032326763745     5.831677025331
C                     6.053983355513     0.638127924335     4.596265010569
C                     7.397566775245     2.177747057925     0.024366599678
C                     8.912789807528     3.430941935265     1.403985193546
C                     6.482332955540     2.087415465585     1.089703905904
C                     6.596668253703     2.806160436987     5.589583161127
C                     8.028708909512     3.364488739584     2.486529014283
C                     6.703520816770     0.774557577567     6.942216818229
C                     8.614535466644     2.847232647904     0.164298765740
C                     6.203895650307     2.012904372097     4.498343154324
C                     6.810955908694     2.696877807500     2.314742877855
C                     6.845293783969     2.176054675121     6.823612763927
C                     6.584034983898     4.291304126430     5.366843831692
C                     8.438223939004     3.964184481063     3.811712349722
C                     0.548153092686    -0.025941685062     1.256403104140
C                     1.175967623066    -1.047279340291     2.251266759076
C                     1.694599231528     0.919937882310     0.852360433769
C                     2.702578273750    -0.784487085207     2.230977602100
C                     2.947452424436     0.016478054455     0.927591023051
C                     9.573243533169     2.971736154962    -0.997682142720
C                     4.709442389618     0.403116393290    11.486002869723
C                     6.399812241083    -1.420159378571    11.054676690221
C                     7.911874381468     4.063188711084     7.952483811039
C                     5.717055447589     0.214637308833     9.190562762523
C                     6.951564357940     0.102396970330     8.284720303693
C                     5.966477638271     0.008422961288    10.695519418245
O                     5.852086384910     5.048095431124     5.966295135634
O                     5.858814492136     2.669567606670     3.320990055360
O                     7.428818758908     4.794397483289     4.424189303079
O                     7.260585592357    -1.290758151216     8.119217098871
O                     7.230795566574     2.803361343547     7.974096699515
H                     6.187323825651    -1.040700508664     5.947564516671
H                     5.723128936147     0.073735309113     3.730369350898
H                     7.138738523145     1.706112481891    -0.919728619182
H                     9.856974912429     3.958551437282     1.528999409531
H                     8.744330322468     3.180907994561     4.511897658151
H                     9.288868944301     4.631396466448     3.659681456922
H                     0.167188068019    -0.547116132900     0.371512575575
H                    -0.294688215661     0.518116417406     1.691937782373
H                     0.775660880301    -0.926521561200     3.261804859954
H                     0.950410837742    -2.072901267135     1.943664582142
H                     1.561507395303     1.369469350683    -0.135679100027
H                     1.804896891698     1.734016922270     1.576843009078
H                     2.999388516485    -0.162816122323     3.081855530038
H                     3.299441102075    -1.700258972300     2.269338854042
H                     2.924203902119    -0.677932565329     0.076408929344
H                     9.427533228226     3.921945392063    -1.525198213208
H                    10.614392037968     2.939241567957    -0.662458174830
H                     9.426392782544     2.166899935835    -1.723378131956
H                     3.862797075016    -0.240973262668    11.217790321264
H                     4.873705293019     0.301369226116    12.564559319011
H                     4.417010231034     1.439961554927    11.285245746832
H                     5.625910472833    -2.141464160062    10.765102945842
H                     7.318873821808    -1.707660568654    10.540373825426
H                     6.558000428235    -1.513178757217    12.135540447399
H                     8.475693966563     4.105274550364     8.886291576210
H                     7.205536551865     4.892779575538     7.901123701924
H                     8.610507607846     4.119086356026     7.109712952053
H                     4.968376969295    -0.500725029544     8.825148742630
H                     5.296161965044     1.214586806564     9.045921945890
H                     7.790251339428     0.611386319126     8.777088619644
H                     6.773805350709     0.695706405436    10.988096312088
H                     8.094508968221    -1.351318762861     7.626305651306
