69
1 1 C25F3H33N5O2S
C                    -9.059912983873    -3.695234386575    -2.908637646457
C                    -8.514975373006    -2.686550686687    -0.755978028114
C                    -7.764603638765    -2.628087558877     0.416403810795
C                    -6.550959736031    -4.615500258212    -0.273756859807
C                    -8.277438449559    -3.694212159081    -1.703602324501
C                    -7.286036492015    -4.665511648078    -1.452553379572
C                    -6.779959131324    -3.588583656987     0.644392017232
C                    -6.597706007255    -3.554868501578     3.135355933424
C                    -4.628255847329    -3.465909753676     1.934916954759
C                     1.667457002129    -5.257134547787    -1.091320917998
C                    -0.323889336002    -3.719034978308    -1.159281067498
C                    -0.054660275163    -5.312154356530     0.638661239711
C                    -0.103725337423    -2.546756667628    -0.195124020900
C                     0.220230262149    -4.199242966003     1.647414309439
C                    -5.444667230553    -3.543425684702     4.140736874294
C                    -5.461429315584    -4.854119454891     4.942351520772
C                    -5.548572805734    -2.311585176895     5.049173576773
C                     3.892637700724    -4.891425268178    -4.273492323150
C                     2.140761407434    -4.745071372619    -2.444106179080
C                     3.420775880121    -5.438304234435    -2.922996626647
C                    -2.328180687524    -1.950623262462     3.629330058787
C                    -0.788100026738    -1.902287708029     3.568916738327
C                    -2.897058767536    -3.383407502212     3.682557935909
C                    -0.201913660853    -1.768275124624     2.161727180975
C                    -7.007494922997    -5.762005193934    -2.461123025895
N                    -9.709380831868    -3.655680422117    -3.873529138105
N                    -6.016596789784    -3.540780804086     1.852991596415
N                    -4.278737453577    -3.468509109177     3.234154361135
N                     0.372770366303    -4.906068157233    -0.692395534132
N                    -0.471205402732    -2.923287467734     1.224698933259
O                    -7.780371161688    -3.576087751003     3.380816782883
O                     2.354269272179    -5.975172633688    -0.374028844962
F                    -6.043422216663    -6.605155822236    -2.018142972478
F                    -8.106518094673    -6.499896897506    -2.711560728811
F                    -6.579842159396    -5.246710947386    -3.635338876598
S                    -3.602448570875    -3.374969237119     0.602930458891
H                    -9.285352535278    -1.947739691173    -0.949449481504
H                    -7.949571060918    -1.847686224454     1.146504411836
H                    -5.798696664230    -5.368009450334    -0.074919274329
H                    -1.393465944364    -3.937361922325    -1.250096391310
H                     0.025581500594    -3.419576738102    -2.146051136917
H                     0.504715464930    -6.199143723624     0.934220893820
H                    -1.122781064100    -5.555085506084     0.615627383422
H                     0.946331664630    -2.243004239026    -0.182438087380
H                    -0.724096069566    -1.690038438362    -0.467760273879
H                    -0.141297236887    -4.462851879109     2.641358550722
H                     1.290931615505    -3.987867336159     1.703178157216
H                    -4.659737515068    -4.864629252968     5.686074910668
H                    -5.346642306462    -5.720636400357     4.285442827350
H                    -6.415907689831    -4.938569761128     5.466811428824
H                    -4.738915099578    -2.306826630205     5.784551783847
H                    -6.499137242453    -2.343928620306     5.586424470605
H                    -5.507987929986    -1.385332490636     4.469461138425
H                     4.114684845200    -3.819289601159    -4.217052102230
H                     3.135709963561    -5.035013138581    -5.052922273426
H                     4.803977019580    -5.400295546810    -4.600662526107
H                     2.318084430853    -3.662235155014    -2.369862240707
H                     1.341552707478    -4.873247681734    -3.184202593665
H                     3.236921719817    -6.514894996764    -2.993855206732
H                     4.200633146286    -5.313640169719    -2.166560172315
H                    -2.749490817745    -1.430307362314     2.764087260917
H                    -2.674305780038    -1.406181178427     4.511352849046
H                    -0.435622653944    -1.012148884557     4.099518282377
H                    -0.344309776552    -2.748749186468     4.103941568846
H                    -2.851434219704    -3.770343503228     4.702711673548
H                    -2.314561079024    -4.071047537715     3.064145254698
H                     0.884223278437    -1.651989935443     2.202643866709
H                    -0.619385885728    -0.883416346692     1.674763574131
H                    -1.508907979620    -3.101518977296     1.206771012624
