
  -OEChem-05262117483D

 41 42  0     1  0  0  0  0  0999 V2000
    2.0510   -0.4003    0.2300 C   0  0  0  0  0  0  0  0  0  0  0  0
   -4.8950   -1.2321    1.0887 C   0  0  0  0  0  0  0  0  0  0  0  0
   -4.8179   -0.3610   -1.1572 C   0  0  0  0  0  0  0  0  0  0  0  0
   -6.1822   -0.7108    1.2605 C   0  0  0  0  0  0  0  0  0  0  0  0
   -6.1021    0.1676   -1.0088 C   0  0  0  0  0  0  0  0  0  0  0  0
   -2.4036   -1.7341   -4.0705 C   0  0  0  0  0  0  0  0  0  0  0  0
   -0.8142   -2.7110   -3.0990 C   0  0  0  0  0  0  0  0  0  0  0  0
   -4.1971   -1.0687   -0.1152 C   0  0  0  0  0  0  0  0  0  0  0  0
   -6.7609   -0.0182    0.2034 C   0  0  0  0  0  0  0  0  0  0  0  0
    0.5618    1.5597    0.2064 C   0  0  0  0  0  0  0  0  0  0  0  0
    0.4203   -0.1917    2.0233 C   0  0  0  0  0  0  0  0  0  0  0  0
   -2.7902   -1.5982   -0.2841 C   0  0  0  0  0  0  0  0  0  0  0  0
   -1.7696   -0.4498   -0.1502 C   0  0  0  0  0  0  0  0  0  0  0  0
    0.1002   -0.6860   -1.8712 C   0  0  0  0  0  0  0  0  0  0  0  0
    0.6701    0.0491    0.5137 C   0  0  0  0  0  0  0  0  0  0  0  0
   -0.2925   -0.8418   -0.3789 C   0  0  1  0  0  0  0  0  0  0  0  0
    3.1152   -0.8092   -0.0042 N   0  0  0  0  0  0  0  0  0  0  0  0
   -1.8261   -2.9622   -3.9193 N   0  0  0  0  0  0  0  0  0  0  0  0
   -1.8132   -0.7502   -3.3991 N   0  0  0  0  0  0  0  0  0  0  0  0
   -0.7826   -1.3960   -2.7778 N   0  0  0  0  0  0  0  0  0  0  0  0
   -0.1435   -2.2138   -0.0011 O   0  0  0  0  0  0  0  0  0  0  0  0
   -8.0127    0.4924    0.3568 F   0  0  0  0  0  0  0  0  0  0  0  0
   -4.4320   -1.7810    1.9058 H   0  0  0  0  0  0  0  0  0  0  0  0
   -4.2869   -0.2243   -2.0960 H   0  0  0  0  0  0  0  0  0  0  0  0
   -6.7321   -0.8383    2.1881 H   0  0  0  0  0  0  0  0  0  0  0  0
   -6.5926    0.7115   -1.8106 H   0  0  0  0  0  0  0  0  0  0  0  0
   -3.2721   -1.5573   -4.6920 H   0  0  0  0  0  0  0  0  0  0  0  0
   -0.1018   -3.4297   -2.7177 H   0  0  0  0  0  0  0  0  0  0  0  0
   -0.4690    1.8940    0.3453 H   0  0  0  0  0  0  0  0  0  0  0  0
    0.8759    1.8063   -0.8096 H   0  0  0  0  0  0  0  0  0  0  0  0
    1.1971    2.1222    0.8955 H   0  0  0  0  0  0  0  0  0  0  0  0
   -0.5131    0.2815    2.3349 H   0  0  0  0  0  0  0  0  0  0  0  0
    0.3657   -1.2578    2.2483 H   0  0  0  0  0  0  0  0  0  0  0  0
    1.2307    0.2517    2.6073 H   0  0  0  0  0  0  0  0  0  0  0  0
   -2.6965   -2.0888   -1.2534 H   0  0  0  0  0  0  0  0  0  0  0  0
   -2.5767   -2.3564    0.4722 H   0  0  0  0  0  0  0  0  0  0  0  0
   -1.8952   -0.0247    0.8478 H   0  0  0  0  0  0  0  0  0  0  0  0
   -2.0308    0.3413   -0.8577 H   0  0  0  0  0  0  0  0  0  0  0  0
    1.1178   -1.0545   -2.0269 H   0  0  0  0  0  0  0  0  0  0  0  0
    0.0687    0.3593   -2.1756 H   0  0  0  0  0  0  0  0  0  0  0  0
    0.7969   -2.4560   -0.0716 H   0  0  0  0  0  0  0  0  0  0  0  0
  1 15  1  0  0  0  0
  1 17  3  0  0  0  0
  2  4  1  0  0  0  0
  2  8  2  0  0  0  0
  2 23  1  0  0  0  0
  3  5  2  0  0  0  0
  3  8  1  0  0  0  0
  3 24  1  0  0  0  0
  4  9  2  0  0  0  0
  4 25  1  0  0  0  0
  5  9  1  0  0  0  0
  5 26  1  0  0  0  0
  6 18  1  0  0  0  0
  6 19  2  0  0  0  0
  6 27  1  0  0  0  0
  7 18  2  0  0  0  0
  7 20  1  0  0  0  0
  7 28  1  0  0  0  0
  8 12  1  0  0  0  0
  9 22  1  0  0  0  0
 10 15  1  0  0  0  0
 10 29  1  0  0  0  0
 10 30  1  0  0  0  0
 10 31  1  0  0  0  0
 11 15  1  0  0  0  0
 11 32  1  0  0  0  0
 11 33  1  0  0  0  0
 11 34  1  0  0  0  0
 12 13  1  0  0  0  0
 12 35  1  0  0  0  0
 12 36  1  0  0  0  0
 13 16  1  0  0  0  0
 13 37  1  0  0  0  0
 13 38  1  0  0  0  0
 14 16  1  0  0  0  0
 14 20  1  0  0  0  0
 14 39  1  0  0  0  0
 14 40  1  0  0  0  0
 15 16  1  0  0  0  0
 16 21  1  0  0  0  0
 19 20  1  0  0  0  0
 21 41  1  0  0  0  0
M  END
$$$$
