20
1 1 C7H9N2OS
C                     3.377258039682    -1.669743762068     0.951212874598
C                     3.890160352320    -2.173641087279    -0.200611408655
C                     1.625440675567    -1.241226682746    -0.483615089874
C                    -0.594447054981     1.053243151580     0.000718702029
C                     0.352683079850     0.873022501925    -1.201334203627
C                     0.285423534518    -0.667005981988    -0.861621183125
C                    -0.460327752409    -1.525230519476    -1.881444624225
N                     2.105992877161    -1.155862868473     0.756552471144
N                    -0.465090347305    -0.310340579039     0.366350827601
O                    -1.237498322374     1.947241798919     0.472373937141
S                     2.760527538739    -1.997638112288    -1.511195104692
H                     3.833878963940    -1.642154748349     1.932231830216
H                     4.853600543718    -2.642354515150    -0.353068939997
H                    -0.090070120589     1.137360092050    -2.162887603096
H                     1.327076832042     1.354167678335    -1.095680242817
H                    -1.417646294831    -1.055396728199    -2.119368132792
H                    -0.651049045375    -2.529537855038    -1.492100284805
H                     0.107950600487    -1.615729723406    -2.812556072755
H                     1.519955315908    -0.735541384159     1.483487274814
H                    -1.220276863898    -0.868583043801     0.765518675173
