
  -OEChem-05262117483D

 27 28  0     1  0  0  0  0  0999 V2000
    0.1207   -1.5627   -3.1308 C   0  0  0  0  0  0  0  0  0  0  0  0
   -0.7923   -1.4828   -6.2889 C   0  0  0  0  0  0  0  0  0  0  0  0
   -0.5922    0.0098   -6.4483 C   0  0  0  0  0  0  0  0  0  0  0  0
   -0.3157   -1.8242   -0.0746 C   0  0  0  0  0  0  0  0  0  0  0  0
   -1.4639    0.0517   -1.0422 C   0  0  0  0  0  0  0  0  0  0  0  0
   -0.9555   -0.5690   -5.1014 C   0  0  0  0  0  0  0  0  0  0  0  0
   -1.7322   -1.3437   -0.4475 C   0  0  2  0  0  0  0  0  0  0  0  0
    1.1613   -1.3301   -2.0298 C   0  0  0  0  0  0  0  0  0  0  0  0
    0.6460   -0.9217   -0.7168 N   0  0  1  0  0  0  0  0  0  0  0  0
    0.0575   -0.5787   -4.0819 N   0  0  0  0  0  0  0  0  0  0  0  0
   -0.6077   -2.5560   -3.1435 O   0  0  0  0  0  0  0  0  0  0  0  0
   -0.0584    0.3344   -0.8429 O   0  0  0  0  0  0  0  0  0  0  0  0
   -2.5145   -1.3190    0.7524 O   0  0  0  0  0  0  0  0  0  0  0  0
   -1.6892   -1.9376   -6.6967 H   0  0  0  0  0  0  0  0  0  0  0  0
    0.0889   -2.1151   -6.2973 H   0  0  0  0  0  0  0  0  0  0  0  0
    0.4248    0.3684   -6.5795 H   0  0  0  0  0  0  0  0  0  0  0  0
   -1.3493    0.5872   -6.9699 H   0  0  0  0  0  0  0  0  0  0  0  0
   -0.2141   -1.7290    1.0103 H   0  0  0  0  0  0  0  0  0  0  0  0
   -0.1272   -2.8551   -0.3737 H   0  0  0  0  0  0  0  0  0  0  0  0
   -1.7099    0.0931   -2.1099 H   0  0  0  0  0  0  0  0  0  0  0  0
   -2.0192    0.8250   -0.5055 H   0  0  0  0  0  0  0  0  0  0  0  0
   -1.9703   -0.4110   -4.7395 H   0  0  0  0  0  0  0  0  0  0  0  0
   -2.1911   -2.0009   -1.1909 H   0  0  0  0  0  0  0  0  0  0  0  0
    1.6946   -2.2719   -1.8755 H   0  0  0  0  0  0  0  0  0  0  0  0
    1.8932   -0.5741   -2.3287 H   0  0  0  0  0  0  0  0  0  0  0  0
    0.5395    0.2898   -3.8835 H   0  0  0  0  0  0  0  0  0  0  0  0
   -3.4497   -1.2611    0.5045 H   0  0  0  0  0  0  0  0  0  0  0  0
  1  8  1  0  0  0  0
  1 10  1  0  0  0  0
  1 11  2  0  0  0  0
  2  3  1  0  0  0  0
  2  6  1  0  0  0  0
  2 14  1  0  0  0  0
  2 15  1  0  0  0  0
  3  6  1  0  0  0  0
  3 16  1  0  0  0  0
  3 17  1  0  0  0  0
  4  7  1  0  0  0  0
  4  9  1  0  0  0  0
  4 18  1  0  0  0  0
  4 19  1  0  0  0  0
  5  7  1  0  0  0  0
  5 12  1  0  0  0  0
  5 20  1  0  0  0  0
  5 21  1  0  0  0  0
  6 10  1  0  0  0  0
  6 22  1  0  0  0  0
  7 13  1  0  0  0  0
  7 23  1  0  0  0  0
  8  9  1  0  0  0  0
  8 24  1  0  0  0  0
  8 25  1  0  0  0  0
  9 12  1  0  0  0  0
 10 26  1  0  0  0  0
 13 27  1  0  0  0  0
M  END
$$$$
