
  -OEChem-05262117483D

 27 28  0     1  0  0  0  0  0999 V2000
   -0.7493   -3.8333   -1.0410 C   0  0  0  0  0  0  0  0  0  0  0  0
   -4.1164   -4.5182   -2.4264 C   0  0  0  0  0  0  0  0  0  0  0  0
   -3.3874   -5.6118   -1.6725 C   0  0  0  0  0  0  0  0  0  0  0  0
   -0.4601   -0.2848    0.3672 C   0  0  0  0  0  0  0  0  0  0  0  0
   -1.4256   -1.5998    2.1255 C   0  0  0  0  0  0  0  0  0  0  0  0
   -2.6083   -4.5840   -2.4559 C   0  0  0  0  0  0  0  0  0  0  0  0
   -0.4244   -0.4481    1.9023 C   0  0  2  0  0  0  0  0  0  0  0  0
   -0.1278   -2.6200   -0.3429 C   0  0  0  0  0  0  0  0  0  0  0  0
   -1.0667   -1.5053   -0.1720 N   0  0  1  0  0  0  0  0  0  0  0  0
   -1.8814   -3.5717   -1.7449 N   0  0  0  0  0  0  0  0  0  0  0  0
   -0.2031   -4.9333   -0.9743 O   0  0  0  0  0  0  0  0  0  0  0  0
   -2.0366   -1.8595    0.8418 O   0  0  0  0  0  0  0  0  0  0  0  0
   -0.8172    0.7990    2.4775 O   0  0  0  0  0  0  0  0  0  0  0  0
   -4.6520   -4.7744   -3.3356 H   0  0  0  0  0  0  0  0  0  0  0  0
   -4.5688   -3.7232   -1.8399 H   0  0  0  0  0  0  0  0  0  0  0  0
   -3.3412   -5.5343   -0.5916 H   0  0  0  0  0  0  0  0  0  0  0  0
   -3.4151   -6.6245   -2.0620 H   0  0  0  0  0  0  0  0  0  0  0  0
   -1.1093    0.5652    0.1419 H   0  0  0  0  0  0  0  0  0  0  0  0
    0.5212   -0.1156   -0.0788 H   0  0  0  0  0  0  0  0  0  0  0  0
   -0.9336   -2.5048    2.5029 H   0  0  0  0  0  0  0  0  0  0  0  0
   -2.2319   -1.3113    2.8036 H   0  0  0  0  0  0  0  0  0  0  0  0
   -2.1361   -4.9230   -3.3751 H   0  0  0  0  0  0  0  0  0  0  0  0
    0.5750   -0.7273    2.2582 H   0  0  0  0  0  0  0  0  0  0  0  0
    0.3196   -2.9805    0.5921 H   0  0  0  0  0  0  0  0  0  0  0  0
    0.6871   -2.2634   -0.9817 H   0  0  0  0  0  0  0  0  0  0  0  0
   -2.2351   -2.6221   -1.7032 H   0  0  0  0  0  0  0  0  0  0  0  0
   -0.6659    0.7599    3.4345 H   0  0  0  0  0  0  0  0  0  0  0  0
  1  8  1  0  0  0  0
  1 10  1  0  0  0  0
  1 11  2  0  0  0  0
  2  3  1  0  0  0  0
  2  6  1  0  0  0  0
  2 14  1  0  0  0  0
  2 15  1  0  0  0  0
  3  6  1  0  0  0  0
  3 16  1  0  0  0  0
  3 17  1  0  0  0  0
  4  7  1  0  0  0  0
  4  9  1  0  0  0  0
  4 18  1  0  0  0  0
  4 19  1  0  0  0  0
  5  7  1  0  0  0  0
  5 12  1  0  0  0  0
  5 20  1  0  0  0  0
  5 21  1  0  0  0  0
  6 10  1  0  0  0  0
  6 22  1  0  0  0  0
  7 13  1  0  0  0  0
  7 23  1  0  0  0  0
  8  9  1  0  0  0  0
  8 24  1  0  0  0  0
  8 25  1  0  0  0  0
  9 12  1  0  0  0  0
 10 26  1  0  0  0  0
 13 27  1  0  0  0  0
M  END
$$$$
