27
0 1 C8H14N2O3
C                     0.100844443770    -0.715210115261    -3.847140356510
C                    -2.550806439654     1.448311018792    -5.327385029172
C                    -2.544885481135    -0.029887484350    -5.661231744578
C                    -1.233355743248    -0.780709056262    -1.066428453759
C                    -0.839326555649     1.454947985827    -0.275780756258
C                    -1.251801940044     0.678875876624    -5.344293648665
C                    -1.838925399393     0.288220400122    -0.131991623887
C                     0.812018259857    -0.796996405834    -2.481892241853
N                     0.143288239683    -0.307385870457    -1.281373495016
N                    -0.611576124408     0.426031179415    -4.083914391632
O                     0.208771278909    -1.629566871366    -4.662399138852
O                    -0.039094818558     1.147059375853    -1.416595724606
O                    -1.880242042555    -0.073943752017     1.247494966726
H                    -2.726268965960     2.164522157415    -6.124288834286
H                    -2.943703087479     1.743808732708    -4.358310767389
H                    -2.917413923493    -0.720813398116    -4.912356814536
H                    -2.711970116177    -0.334454962275    -6.689428584228
H                    -1.199638227709    -1.763361798892    -0.588645605844
H                    -1.808417036713    -0.846262867648    -2.001055459337
H                    -1.307098894768     2.423225925868    -0.462494674877
H                    -0.223147034017     1.494237102382     0.629185072896
H                    -0.573251174023     0.851727267945    -6.176804253670
H                    -2.841365369121     0.567895207429    -0.478438630773
H                     1.028830905076    -1.853968510464    -2.312317034269
H                     1.772214055192    -0.275979515219    -2.556109462068
H                    -0.561041589952     1.160924273865    -3.385412237157
H                    -2.596835247124    -0.714153337788     1.376498760830
