27
0 1 C8H14N2O3
C                     1.003127291549    -1.431696965794    -3.735601336564
C                    -1.031347269715    -2.225627498790    -6.209306042778
C                    -2.054830532154    -2.891213497234    -5.311349372157
C                     0.474418011119    -0.143001108129    -0.170633212748
C                     0.076190326238    -2.443115151875     0.366444703638
C                    -0.599367524607    -2.860533189004    -4.911534758907
C                    -0.070825305422    -1.027766899042     0.966738383615
C                     1.266026308135    -0.657500752761    -2.440773664429
N                     0.362825322021    -1.008326558188    -1.354016370695
N                    -0.226896291597    -2.011425898596    -3.816095958483
O                     1.847496392714    -1.458524826888    -4.627763850109
O                     0.848540202942    -2.288283302932    -0.822899968969
O                    -1.453699778498    -0.824947847732     1.260574354087
H                    -0.742792905856    -2.720956286062    -7.130917384515
H                    -1.021023292215    -1.141542375341    -6.246582047512
H                    -2.736710452551    -2.246754401499    -4.763538503665
H                    -2.475689877477    -3.845243309127    -5.614218746872
H                    -0.125573164705     0.759035534661    -0.316440150741
H                     1.522008385899     0.133645815972     0.025567038180
H                     0.614464595878    -3.144985143580     1.005484823649
H                    -0.927053823514    -2.825226697179     0.142106433510
H                    -0.035695347115    -3.788446994278    -4.983750784373
H                     0.531704127103    -0.900701856777     1.873825012152
H                     2.319387074642    -0.800633848269    -2.166475286999
H                     1.113611714232     0.404439182855    -2.660636148416
H                    -0.770593558708    -2.026478825905    -2.959450083617
H                    -1.543361961667    -0.001487781728     1.764527893793
