27
0 1 C8H14N2O3
C                    -0.041465712383    -1.613257455104    -3.208542840318
C                    -2.980554342834    -2.444046461432    -4.373197596555
C                    -3.405248598360    -3.214082960582    -3.140248891126
C                    -0.718925325579     0.483878852963    -0.882980452840
C                     0.449679971374     0.214870919405     1.176919327112
C                    -1.945590480266    -3.135442014681    -3.522433087169
C                    -0.920337045972     0.684401423347     0.621638127438
C                     0.842753057464    -0.932188800413    -2.160146211140
N                     0.143976942656    -0.706753620013    -0.898630927055
N                    -1.084071380716    -2.334004531440    -2.699364077831
O                     0.211650209314    -1.515065713190    -4.405057774170
O                     1.182163473270    -0.319547542824     0.065196500350
O                    -2.008849541137    -0.077756346817     1.138479624649
H                    -3.187299021196    -2.866335924042    -5.351195029677
H                    -3.003583939247    -1.360584565860    -4.327211324349
H                    -3.727586487324    -2.639297828828    -2.276320400110
H                    -3.909768606395    -4.167236317428    -3.265493807207
H                    -1.659130150005     0.283694675529    -1.400200666305
H                    -0.212680760765     1.347662460550    -1.340808901283
H                     1.052166334166     1.026458032129     1.592154598207
H                     0.290558389707    -0.552614093615     1.944654461032
H                    -1.483242736733    -4.027456591444    -3.939848033903
H                    -1.146386362984     1.720503614889     0.875953794415
H                     1.687085782988    -1.597261560465    -1.955278847142
H                     1.240091301290    -0.007540632374    -2.598265554915
H                    -1.112557154011    -2.433570652406    -1.690352520912
H                    -1.835514757018    -1.008810035654     0.918895350287
