
  -OEChem-05262117483D

 24 26  0     0  0  0  0  0  0999 V2000
    1.4244   -0.9499   -1.3291 C   0  0  0  0  0  0  0  0  0  0  0  0
    0.1295   -1.0820   -0.7074 C   0  0  0  0  0  0  0  0  0  0  0  0
    2.3422   -1.9674   -1.3519 C   0  0  0  0  0  0  0  0  0  0  0  0
   -0.2869   -2.2327   -0.0875 C   0  0  0  0  0  0  0  0  0  0  0  0
    1.9496   -3.1861   -0.7189 C   0  0  0  0  0  0  0  0  0  0  0  0
    0.6574   -3.3127   -0.1001 C   0  0  0  0  0  0  0  0  0  0  0  0
   -2.5343   -3.2496   -0.4049 C   0  0  0  0  0  0  0  0  0  0  0  0
   -2.3621   -1.1301    0.8690 C   0  0  0  0  0  0  0  0  0  0  0  0
   -3.5432   -2.6985   -1.0996 C   0  0  0  0  0  0  0  0  0  0  0  0
   -3.3873   -0.6593    0.1375 C   0  0  0  0  0  0  0  0  0  0  0  0
   -1.6645   -2.4319    0.5384 C   0  0  0  0  0  0  0  0  0  0  0  0
    2.6046   -4.3284   -0.5774 N   0  0  0  0  0  0  0  0  0  0  0  0
    0.5471   -4.5317    0.4058 N   0  0  0  0  0  0  0  0  0  0  0  0
   -3.9033   -1.3530   -0.9593 N   0  0  0  0  0  0  0  0  0  0  0  0
    1.7397   -5.1442    0.1110 O   0  0  0  0  0  0  0  0  0  0  0  0
    1.6716    0.0002   -1.7957 H   0  0  0  0  0  0  0  0  0  0  0  0
   -0.5468   -0.2323   -0.7335 H   0  0  0  0  0  0  0  0  0  0  0  0
    3.3161   -1.8682   -1.8194 H   0  0  0  0  0  0  0  0  0  0  0  0
   -2.2917   -4.2965   -0.5522 H   0  0  0  0  0  0  0  0  0  0  0  0
   -2.0039   -0.5451    1.7105 H   0  0  0  0  0  0  0  0  0  0  0  0
   -4.1353   -3.2678   -1.8094 H   0  0  0  0  0  0  0  0  0  0  0  0
   -3.8701    0.2874    0.3607 H   0  0  0  0  0  0  0  0  0  0  0  0
   -1.5028   -3.0082    1.4591 H   0  0  0  0  0  0  0  0  0  0  0  0
   -4.8294   -1.0937   -1.2694 H   0  0  0  0  0  0  0  0  0  0  0  0
  1  2  1  0  0  0  0
  1  3  2  0  0  0  0
  1 16  1  0  0  0  0
  2  4  2  0  0  0  0
  2 17  1  0  0  0  0
  3  5  1  0  0  0  0
  3 18  1  0  0  0  0
  4  6  1  0  0  0  0
  4 11  1  0  0  0  0
  5  6  1  0  0  0  0
  5 12  2  0  0  0  0
  6 13  2  0  0  0  0
  7  9  2  0  0  0  0
  7 11  1  0  0  0  0
  7 19  1  0  0  0  0
  8 10  2  0  0  0  0
  8 11  1  0  0  0  0
  8 20  1  0  0  0  0
  9 14  1  0  0  0  0
  9 21  1  0  0  0  0
 10 14  1  0  0  0  0
 10 22  1  0  0  0  0
 11 23  1  0  0  0  0
 12 15  1  0  0  0  0
 13 15  1  0  0  0  0
 14 24  1  0  0  0  0
M  END
$$$$
