27
0 1 C8H14N2O3
C                     0.982296098357    -0.113388457255    -3.820276839455
C                    -2.051684705931    -0.479061641687    -5.963216403790
C                    -0.688782275095    -0.712033834889    -6.581933721738
C                     0.216342714689     1.234991165418    -1.023086792289
C                    -0.337346370679    -0.244981044482     0.762782485028
C                    -0.840525358994     0.248287629450    -5.429306941245
C                    -0.681676769266     1.165177985496     0.215695065284
C                     1.299751782500    -0.515327505336    -2.376423863491
N                     0.218000917937    -0.170248686127    -1.457860466068
N                    -0.345424954022    -0.135186907012    -4.136998443680
O                     1.877681962586     0.157989539319    -4.614460424993
O                     0.532034804650    -0.857920218258    -0.199073286299
O                    -2.065789818646     1.308254300290    -0.093476217331
H                    -2.785919540973     0.100689675311    -6.514261084800
H                    -2.467544459052    -1.275668975268    -5.352439733853
H                    -0.191386436970    -1.651920242804    -6.367923927116
H                    -0.478411552775    -0.292576502252    -7.560426824569
H                    -0.204794459253     1.877887140466    -1.798779428515
H                     1.232094052484     1.572237405185    -0.765998120309
H                     0.204890827715    -0.224064637884     1.711171119686
H                    -1.260057797753    -0.826775101933     0.881604375129
H                    -0.747047019662     1.307647042982    -5.658880641981
H                    -0.462424961071     1.959536924486     0.929988968414
H                     1.421065065367    -1.602351911850    -2.348438480166
H                     2.256741944004    -0.057047711067    -2.097200814769
H                    -0.990694071897    -0.287989403686    -3.369570719385
H                    -2.289895123798     0.615677935721    -0.737764568748
