18
0 1 C5H7N5O
C                     1.901888242736    -0.153545826610     0.113212749254
C                    -0.128980833104     1.156537754629     1.826262760253
C                    -0.628420390660     0.793642269002     3.909459307607
C                    -1.526774304028     1.167673389426    -0.272841383232
C                    -0.121011762985     1.131988191930     0.314611525972
N                     3.047283742561    -0.108520841850     0.345607673621
N                    -1.086194603730     0.692209263754     2.571847896119
N                     0.960538855629     1.646323225407     2.525244687954
N                     0.727307185673     1.228624369808     3.852975635946
N                     0.587241502909    -0.091308305302    -0.164386508614
O                    -1.237985636375     0.567954088977     4.934660861367
H                    -2.122254424052     0.328235759481     0.094502646492
H                    -2.034091839138     2.086708103824     0.029115129044
H                    -1.469035244103     1.129655991544    -1.363118044090
H                     0.464327474854     1.979849682765    -0.051934245221
H                     1.891052550874     1.413803843852     2.171908995017
H                     1.010682058247     1.899571949417     4.561658345022
H                     0.083156303913    -0.953530877160     0.032995918911
