
  -OEChem-05262117483D

 18 18  0     1  0  0  0  0  0999 V2000
    0.0407   -1.0263   -1.1423 C   0  0  0  0  0  0  0  0  0  0  0  0
    0.0132    1.0214    1.8775 C   0  0  0  0  0  0  0  0  0  0  0  0
    0.4204    1.7518    3.8796 C   0  0  0  0  0  0  0  0  0  0  0  0
   -1.5314    1.0707   -0.0913 C   0  0  0  0  0  0  0  0  0  0  0  0
   -0.0868    0.8827    0.3811 C   0  0  2  0  0  0  0  0  0  0  0  0
   -0.3317   -1.5411   -2.1221 N   0  0  0  0  0  0  0  0  0  0  0  0
    0.5043    2.0516    2.4958 N   0  0  0  0  0  0  0  0  0  0  0  0
   -0.4775    0.0277    2.7043 N   0  0  0  0  0  0  0  0  0  0  0  0
   -0.0231    0.3974    3.9904 N   0  0  0  0  0  0  0  0  0  0  0  0
    0.4308   -0.4696    0.0242 N   0  0  0  0  0  0  0  0  0  0  0  0
    0.6687    2.4711    4.8242 O   0  0  0  0  0  0  0  0  0  0  0  0
   -2.1810    0.2921    0.3168 H   0  0  0  0  0  0  0  0  0  0  0  0
   -1.8914    2.0438    0.2507 H   0  0  0  0  0  0  0  0  0  0  0  0
   -1.5862    1.0421   -1.1818 H   0  0  0  0  0  0  0  0  0  0  0  0
    0.5461    1.6615   -0.0550 H   0  0  0  0  0  0  0  0  0  0  0  0
   -0.2775   -0.9342    2.4358 H   0  0  0  0  0  0  0  0  0  0  0  0
   -0.6962    0.2234    4.7322 H   0  0  0  0  0  0  0  0  0  0  0  0
    1.4330   -0.5612    0.1762 H   0  0  0  0  0  0  0  0  0  0  0  0
  1  6  3  0  0  0  0
  1 10  1  0  0  0  0
  2  5  1  0  0  0  0
  2  7  2  0  0  0  0
  2  8  1  0  0  0  0
  3  7  1  0  0  0  0
  3  9  1  0  0  0  0
  3 11  2  0  0  0  0
  4  5  1  0  0  0  0
  4 12  1  0  0  0  0
  4 13  1  0  0  0  0
  4 14  1  0  0  0  0
  5 10  1  0  0  0  0
  5 15  1  0  0  0  0
  8  9  1  0  0  0  0
  8 16  1  0  0  0  0
  9 17  1  0  0  0  0
 10 18  1  0  0  0  0
M  END
$$$$
