30   
torsion grid (-165,)
C        5.5881469488   -1.7256270691   -1.4793175915
C        4.1922924810   -1.7061184688   -1.4077282428
C        6.3431120876   -1.3169053676   -0.3734410479
C        3.5508406494   -1.2791883839   -0.2397332206
C        5.7015553089   -0.8967062148    0.7935016070
C        4.3011833135   -0.8748455342    0.8708613221
C        3.9451571877    1.7044445653    4.6644801564
C        3.1971581336    1.9153167276    5.9699666476
C        3.0122999027    1.9156787167    1.1217531818
C        3.6393690536   -0.3663585118    2.1382342448
C        3.7175891516    1.1679159339    2.2586001524
N        3.1546782500    1.6015519747    3.5381651630
O        5.1718422574    1.6540108601    4.6206180404
O        3.1834190755    3.3247550031    1.2461990128
O        2.2476827491   -0.7070409132    2.2291131754
H        6.0850402130   -2.0556647919   -2.3878652588
H        3.6000789164   -2.0184512383   -2.2642169732
H        7.4290161675   -1.3285743894   -0.4198274401
H        2.4663173266   -1.2444379692   -0.1917284642
H        6.2922328738   -0.5836859957    1.6524453416
H        3.3862061330    1.0598363214    6.6250053401
H        3.6008073774    2.8017473600    6.4654884089
H        2.1179633457    2.0360173542    5.8416435085
H        1.9467263251    1.6464850269    1.0977533591
H        3.4529611402    1.6324839610    0.1644860896
H        4.1757157018   -0.7750998141    3.0055642587
H        4.7694218341    1.4573071940    2.2705925892
H        2.1823002185    1.3512579541    3.6842161310
H        2.9942658618    3.5503223161    2.1728376088
H        2.1768292314   -1.6730934797    2.2824454007
30   
torsion grid (-150,)
C        5.6075187220   -1.7618334669   -1.4687658111
C        4.2248485714   -1.5495961725   -1.4505018434
C        6.3576298318   -1.5236944479   -0.3121568252
C        3.5967730259   -1.0962304073   -0.2870329971
C        5.7281800082   -1.0767024433    0.8528811873
C        4.3452707069   -0.8502114204    0.8726304996
C        3.9285409146    1.7654585028    4.6342421482
C        3.2026240291    1.9315160539    5.9585652192
C        2.8836554667    1.8929113268    1.1210498455
C        3.6916634391   -0.3402999304    2.1415703186
C        3.6696362686    1.1965606549    2.2375080675
N        3.1154221076    1.6042134439    3.5307837912
O        5.1539903063    1.7980665577    4.5569367231
O        2.9594534327    3.3103097320    1.2447572587
O        2.3308214125   -0.7792053874    2.2881449492
H        6.0952488472   -2.1136760964   -2.3741318552
H        3.6351031418   -1.7359059403   -2.3445079818
H        7.4313529125   -1.6924220290   -0.3151802524
H        2.5230356998   -0.9312534924   -0.2729631819
H        6.3148381409   -0.8976711353    1.7518747847
H        3.4670400727    1.0941191924    6.6108621417
H        3.5576249662    2.8459182392    6.4402955887
H        2.1146613824    1.9773139678    5.8588749729
H        1.8387908056    1.5505820879    1.1259695632
H        3.3169309733    1.6438465362    0.1512851462
H        4.2816851221   -0.6904476078    2.9995522748
H        4.7013443157    1.5517109159    2.2167870333
H        2.1672273346    1.2884075828    3.7066904276
H        2.7902761592    3.5198433682    2.1791269156
H        2.3275371170   -1.7491468186    2.2713701270
30   
torsion grid (-135,)
C        5.5911093378   -1.8060845168   -1.4767365983
C        4.2501800506   -1.4046227946   -1.4953715662
C        6.3229249012   -1.7177363806   -0.2889900976
C        3.6494497878   -0.9082152923   -0.3366559761
C        5.7168964869   -1.2260004500    0.8716112320
C        4.3831780437   -0.7972028583    0.8552488034
C        3.8584254548    1.8599977438    4.6158738884
C        3.1416270085    1.9592083218    5.9518937650
C        2.7738280591    1.9003988530    1.1254901680
C        3.7415119523   -0.2891592082    2.1308617058
C        3.6158294867    1.2423358077    2.2255134819
N        3.0480971496    1.6008353875    3.5284568187
O        5.0710806370    2.0252790997    4.5169466558
O        2.7274425822    3.3141381907    1.2901790284
O        2.4213209306   -0.8276916599    2.3328534075
H        6.0581635819   -2.1925884586   -2.3788477524
H        3.6721900343   -1.4821907795   -2.4127724338
H        7.3606457049   -2.0398506313   -0.2624514208
H        2.6030714576   -0.6171792907   -0.3500003551
H        6.2883406236   -1.1647233880    1.7955231985
H        3.5043342441    1.1595614038    6.6043302169
H        3.4066239871    2.9097238553    6.4214722488
H        2.0533804292    1.8890956924    5.8716947046
H        1.7618925156    1.4695538401    1.1173988218
H        3.2291486600    1.7206828908    0.1507644865
H        4.3822467106   -0.5865067675    2.9722290214
H        4.6216820640    1.6656913613    2.2002561601
H        2.1426105213    1.1870251966    3.7252008074
H        2.5524669015    3.4801641900    2.2323747914
H        2.4813531881   -1.7930247775    2.2590477106
30   
torsion grid (-120,)
C        5.1572938276   -1.9659657145   -1.5579351028
C        5.5306088986   -0.6341871408   -1.3404512648
C        4.1747826478   -2.5476806863   -0.7526951562
C        4.9368229322    0.1039262908   -0.3152596916
C        3.5795586277   -1.8027948860    0.2709071527
C        3.9733112284   -0.4815313620    0.5239929568
C        2.5622059064    0.7915110195    4.7727723294
C        1.4780762192    1.5789942842    5.4892875602
C        5.2898946734    1.6578225355    2.5136590045
C        3.2494315561    0.3184536925    1.5887511225
C        4.0795616457    0.7607643231    2.8072794482
N        3.1968825912    1.4628581682    3.7457028474
O        2.8623969107   -0.3508264181    5.1073615470
O        5.9471950453    2.0428447102    3.7160480761
O        2.6349408848    1.5042890088    1.0421016918
H        5.6202359835   -2.5396518852   -2.3566071280
H        6.2791372527   -0.1686465062   -1.9765448321
H        3.8644420712   -3.5748825324   -0.9253405169
H        5.2051205662    1.1472965974   -0.1836911615
H        2.8110400937   -2.2588389195    0.8914656381
H        0.5195418126    1.0747125449    5.3355273066
H        1.6863415739    1.5655548107    6.5619213325
H        1.3940402236    2.6157831382    5.1521839673
H        4.9753353770    2.5388915054    1.9350044369
H        6.0276812413    1.1069022382    1.9292965774
H        2.4599211078   -0.3254230635    1.9998974610
H        4.4244927371   -0.1369337864    3.3240097660
H        2.7009562476    2.2537151810    3.3472227861
H        5.2500628833    2.2958108650    4.3455865295
H        2.1595484007    1.2447752056    0.2374866255
30   
torsion grid (-105,)
C        5.0646991350   -1.9655717989   -1.6323554902
C        5.5974444464   -0.7194846777   -1.2822759628
C        3.9861250321   -2.4802531438   -0.9089899762
C        5.0671445981   -0.0014982514   -0.2088065646
C        3.4586489827   -1.7577409192    0.1660086536
C        4.0115033433   -0.5283192077    0.5559572540
C        2.6754076728    0.7766654449    4.8464818594
C        1.5401003682    1.4953999386    5.5562180274
C        5.2812597938    1.7556934944    2.5171949433
C        3.3086015934    0.2627408905    1.6428536653
C        4.1332206457    0.7843014571    2.8331310087
N        3.2106769258    1.4471143784    3.7635794007
O        3.0960266608   -0.3102267649    5.2313226160
O        5.8804249289    2.2487443408    3.7097390907
O        2.5958871715    1.3918907918    1.0887744779
H        5.4790732730   -2.5221847844   -2.4688594304
H        6.4203858558   -0.3002176747   -1.8554277878
H        3.5509710485   -3.4377849742   -1.1827742541
H        5.4613390297    0.9841604490    0.0096103336
H        2.6188028060   -2.1649761507    0.7253151356
H        0.6324892384    0.8915215042    5.4652705618
H        1.7805598053    1.5661758597    6.6198459976
H        1.3429918491    2.4971349730    5.1646547179
H        4.9161161379    2.5792439035    1.8859678504
H        6.0744112426    1.2326658868    1.9824764328
H        2.5715279528   -0.4142886287    2.0965082397
H        4.5377792086   -0.0773490517    3.3678821575
H        2.6323393313    2.1676438402    3.3434156866
H        5.1518339221    2.4729743070    4.3141832674
H        2.1595405985    1.0935636460    0.2755839097
30   
torsion grid (-90,)
C        5.0700264116   -2.2573132982   -1.3084085337
C        5.8594296888   -1.2523195062   -0.7403467855
C        3.7215863027   -2.3552721622   -0.9537944027
C        5.3053597511   -0.3426774195    0.1643664937
C        3.1745442743   -1.4490179914   -0.0416122544
C        3.9511434393   -0.4240916030    0.5228075766
C        2.8629110249    0.6075736191    4.7266041868
C        1.7898931421    1.0874120772    5.6902027323
C        4.9288842448    2.3531741650    2.2685524422
C        3.2515626603    0.5459548353    1.4597564592
C        4.0875380117    1.1170842716    2.6211385069
N        3.2157875195    1.4998767771    3.7376639675
O        3.3905735643   -0.4954136430    4.8403062531
O        5.8394704121    2.6726778657    3.3178107728
O        2.7128569705    1.6827004842    0.7477435465
H        5.5047654278   -2.9631763005   -2.0112847725
H        6.9124418803   -1.1776245734   -0.9992153711
H        3.1007726322   -3.1414219471   -1.3756206640
H        5.9459600184    0.4180822100    0.5947366337
H        2.1299965953   -1.5477035831    0.2491811222
H        0.9141860489    0.4394460370    5.5905886557
H        2.1624974637    0.9782554024    6.7116658123
H        1.4856354950    2.1253416562    5.5282857095
H        4.2644485557    3.1982061354    2.0463582779
H        5.5346295150    2.1843129472    1.3796083622
H        2.4229843828   -0.0065649126    1.9218009463
H        4.7404172359    0.3300705415    3.0020116411
H        2.5853487389    2.2743412531    3.5607622686
H        5.3272014746    2.6893097105    4.1435417745
H        2.2791859722    1.3502104214   -0.0541929528
30   
torsion grid (-75,)
C        5.1406943164   -2.1989907549   -1.3590710283
C        5.9314406728   -1.3589301619   -0.5707463375
C        3.7513625553   -2.1875768758   -1.1972127886
C        5.3420657293   -0.4969168377    0.3598761874
C        3.1684132558   -1.3327096691   -0.2598143822
C        3.9496515521   -0.4604226263    0.5173928752
C        2.9428294788    0.7009913312    4.7813289715
C        1.8718374573    1.1966189244    5.7389627384
C        4.8625425352    2.3262884344    2.1392262513
C        3.2132306039    0.4509961585    1.4868513579
C        4.0577686049    1.0994750729    2.5941992909
N        3.2024901230    1.5227595307    3.7068821355
O        3.5464970298   -0.3517731897    4.9711624280
O        5.8292469995    2.7015364473    3.1179412962
O        2.5574998560    1.5425389383    0.8006260053
H        5.6026015452   -2.8674858052   -2.0807976697
H        7.0132647600   -1.3764190762   -0.6741737969
H        3.1264365849   -2.8532881587   -1.7868828393
H        5.9859024578    0.1256315478    0.9708535157
H        2.0888354116   -1.3580899543   -0.1156007564
H        1.0382091455    0.4883850182    5.7284865945
H        2.2826849479    1.2026737261    6.7515289973
H        1.4946282061    2.1945850848    5.4984181736
H        4.1764500828    3.1542165580    1.9195082386
H        5.4158416484    2.1203802317    1.2234109171
H        2.4502284967   -0.1605593794    1.9875549799
H        4.7364470840    0.3507672632    3.0060877873
H        2.5230959788    2.2441502477    3.4920277132
H        5.3620249094    2.7737518226    3.9669451673
H        2.1473095132    1.1898669145   -0.0047122629
30   
torsion grid (-60,)
C        5.1961391408   -2.1235637408   -1.4171715428
C        5.9583067201   -1.4575472488   -0.4549326306
C        3.8022698061   -2.0054474716   -1.3915145777
C        5.3390477832   -0.6625849633    0.5158437995
C        3.1890239817   -1.2170776616   -0.4165472108
C        3.9455738214   -0.5169811457    0.5390468517
C        3.0073003721    0.7853941543    4.8596888394
C        1.9250334510    1.3060235664    5.7908970330
C        4.8321747117    2.2367681104    2.0637454774
C        3.1911108277    0.3142735120    1.5682919455
C        4.0474856811    1.0374512780    2.6154425077
N        3.1986987770    1.5184159564    3.7088683976
O        3.6763589304   -0.2076299808    5.1341022400
O        5.7937298915    2.7023197143    3.0080313154
O        2.3849407257    1.3445695565    0.9535309007
H        5.6801022599   -2.7392075554   -2.1706813983
H        7.0407004166   -1.5560900375   -0.4543860885
H        3.1947923035   -2.5369138950   -2.1194601340
H        5.9597708485   -0.1731170377    1.2583351778
H        2.1004542012   -1.1714255685   -0.3877240529
H        1.1373242073    0.5509878712    5.8684391531
H        2.3531836138    1.4351970718    6.7879872749
H        1.4823294643    2.2513327481    5.4647697805
H        4.1327260064    3.0338492659    1.7811812692
H        5.3892732957    1.9626939440    1.1676073153
H        2.5278757172   -0.3695984011    2.1173859344
H        4.7389387795    0.3250269963    3.0681744255
H        2.4655334993    2.1649513362    3.4387960675
H        5.3228986650    2.8439630997    3.8463019329
H        1.9687881285    0.9823765670    0.1564899116
30   
torsion grid (-45,)
C        5.2465305781   -2.0253118900   -1.4367484110
C        5.9435996544   -1.5643217187   -0.3178477628
C        3.8822377443   -1.7419768425   -1.5575977627
C        5.2872358384   -0.8209453415    0.6684359659
C        3.2320800878   -0.9994888471   -0.5698719747
C        3.9243169744   -0.5122379440    0.5497421736
C        3.0514210335    0.8814476526    4.9224543113
C        1.9647928815    1.4108054403    5.8437130139
C        4.7682770637    2.1913131015    2.0000232761
C        3.1508465486    0.2228438484    1.6409002945
C        4.0129583335    1.0153423349    2.6355217370
N        3.1685485261    1.5323161134    3.7135586977
O        3.7840783946   -0.0479978455    5.2517518434
O        5.6590134453    2.7959209681    2.9338178566
O        2.2170235383    1.1861086720    1.1085772331
H        5.7571790880   -2.6021918306   -2.2032570502
H        7.0024125527   -1.7832095213   -0.2068573194
H        3.3238045074   -2.1017279575   -2.4179908559
H        5.8558262373   -0.4899833205    1.5310848690
H        2.1699271233   -0.7963516217   -0.6902704557
H        1.2214043024    0.6230443547    5.9971420436
H        2.4086975885    1.6346914884    6.8168069385
H        1.4639870755    2.3052730041    5.4628411445
H        4.0496578920    2.9213792243    1.6043246500
H        5.3826748254    1.8477473729    1.1670518995
H        2.6002728342   -0.5261509128    2.2273954300
H        4.7253574033    0.3445405675    3.1165540879
H        2.3887487933    2.1057940559    3.4111003671
H        5.1453531559    2.9736395123    3.7396557813
H        1.4869059678    0.7150671705    0.6811005772
30   
torsion grid (-30,)
C        5.3374192060   -2.0129258294   -1.4852512380
C        5.9622467895   -1.7580980216   -0.2609287896
C        4.0339049444   -1.5551020106   -1.6963323824
C        5.2905423558   -1.0525999279    0.7408376697
C        3.3658920164   -0.8477123200   -0.6924920004
C        3.9876443085   -0.5726402620    0.5331737775
C        3.1666194651    0.9008664187    4.8968031325
C        2.0919236477    1.4381749493    5.8273041413
C        4.7688737910    2.1338450367    1.8648446820
C        3.2073334966    0.1035662887    1.6558663687
C        4.0704449429    0.9745038970    2.5872827833
N        3.2424852161    1.5153151060    3.6650593674
O        3.9257167802   -0.0029789694    5.2372910370
O        5.6224496746    2.8539009471    2.7496847553
O        2.1753744166    0.9815978450    1.1649995937
H        5.8597843696   -2.5614821021   -2.2645987216
H        6.9747558270   -2.1103119355   -0.0816173154
H        3.5350805387   -1.7470052982   -2.6429472397
H        5.7960685144   -0.8814862122    1.6862140972
H        2.3627069143   -0.4794182302   -0.8875925916
H        1.3761847661    0.6376670150    6.0359438527
H        2.5572040008    1.7152283100    6.7765164000
H        1.5555901244    2.3021744079    5.4251224338
H        4.0188295906    2.7949019582    1.4089578044
H        5.4053350438    1.7496294592    1.0663384614
H        2.7540324991   -0.6772877068    2.2817224401
H        4.8211739782    0.3541892112    3.0764601907
H        2.4346375378    2.0460014018    3.3578111057
H        5.1000892355    3.0527023778    3.5450644936
H        1.4078246307    0.4487842512    0.9104769167
30   
torsion grid (-15,)
C        5.3667275368   -2.0159651626   -1.4789546437
C        5.8790210805   -1.9602781514   -0.1778206121
C        4.1533969053   -1.3859618756   -1.7654734163
C        5.1838846149   -1.2796145674    0.8235469924
C        3.4594528957   -0.7022252094   -0.7606846161
C        3.9736451006   -0.6258645042    0.5390757569
C        3.2508211330    0.9302413482    4.8572325381
C        2.2042870261    1.4515946564    5.8277258147
C        4.6496290818    2.1476293433    1.7050440072
C        3.1869058867    0.0386480549    1.6615517964
C        4.0499595742    0.9904220858    2.5127786607
N        3.2600687743    1.5334186484    3.6172876838
O        4.0445906742    0.0469511339    5.1722850920
O        5.5158536277    2.9442041614    2.5084774644
O        2.0929310410    0.8413760508    1.1859714180
H        5.9075135834   -2.5459772340   -2.2586001702
H        6.8191265709   -2.4515693193    0.0593977115
H        3.7442843262   -1.4236678488   -2.7719714470
H        5.5892949781   -1.2654700802    1.8317294127
H        2.5334236795   -0.1904052556   -1.0044976162
H        1.5032361938    0.6432147352    6.0556609751
H        2.6994430908    1.7273715231    6.7619423665
H        1.6461863063    2.3123789954    5.4490181010
H        3.8464619455    2.7547177448    1.2646490793
H        5.2584745909    1.7531701545    0.8896455948
H        2.8070859798   -0.7402512537    2.3364943567
H        4.8606542201    0.4269925905    2.9739951365
H        2.4225753063    2.0335376362    3.3391269601
H        5.0333000721    3.1463606696    3.3278056874
H        1.3662460869    0.2527655362    0.9315252263
30   
torsion grid (0,)
C        5.4114997452   -1.9820152504   -1.4451669119
C        5.7955992861   -2.1149310330   -0.1052066121
C        4.2977713955   -1.2030960155   -1.7679768083
C        5.0694297189   -1.4723370024    0.8986972794
C        3.5724046013   -0.5558357776   -0.7605120338
C        3.9588608449   -0.6749825160    0.5788909661
C        3.3099329225    0.9319867871    4.8556806386
C        2.2905386555    1.4357425004    5.8634165560
C        4.5388793882    2.1564133762    1.6263373254
C        3.1716112247   -0.0165232862    1.7005664727
C        4.0259469394    0.9966470045    2.4871989940
N        3.2653097408    1.5334166336    3.6153225226
O        4.1298088233    0.0627661883    5.1419287611
O        5.4003502522    3.0122924037    2.3719910832
O        2.0259330238    0.7158597563    1.2411987382
H        5.9750651974   -2.4832268387   -2.2277358915
H        6.6570504044   -2.7235514061    0.1573667363
H        3.9916960425   -1.0952662534   -2.8055433536
H        5.3662791253   -1.5958778456    1.9380259073
H        2.7246259068    0.0710883823   -1.0200835746
H        1.6169149229    0.6136276943    6.1225380570
H        2.8154182227    1.7279864486    6.7762178940
H        1.6994949579    2.2819618451    5.5023817116
H        3.6923656657    2.7158346476    1.2040026504
H        5.1310197043    1.7655027407    0.7969511926
H        2.8564403665   -0.7894828621    2.4146586775
H        4.8811229256    0.4746466973    2.9172202935
H        2.4049899414    2.0092303206    3.3652224262
H        4.9480358438    3.2062269770    3.2103624233
H        1.3601229936    0.0802391948    0.9358827861
30   
torsion grid (15,)
C        5.4332721075   -1.9492688761   -1.4229264707
C        5.6949125994   -2.2395258237   -0.0784486697
C        4.4218822783   -1.0415118313   -1.7493069219
C        4.9474083782   -1.6256774149    0.9285051919
C        3.6768525170   -0.4226447697   -0.7392219967
C        3.9367575459   -0.7076465314    0.6063986261
C        3.3312564369    1.0141633264    4.8313443539
C        2.3142338886    1.5069400212    5.8467528009
C        4.4244347837    2.1913202146    1.5322402149
C        3.1597731615   -0.0421278898    1.7276850653
C        3.9898375100    1.0394586038    2.4450719821
N        3.2390666219    1.5830920484    3.5776855347
O        4.1869283566    0.1815239923    5.1208431394
O        5.2539238413    3.1173995703    2.2283321832
O        1.9583356082    0.6049470517    1.2821083571
H        6.0124833769   -2.4286650175   -2.2077659661
H        6.4773719958   -2.9468146146    0.1841263223
H        4.2136200020   -0.8109635178   -2.7911018967
H        5.1491712054   -1.8604301769    1.9719937556
H        2.9035677868    0.2968140339   -0.9922476067
H        1.6593133002    0.6742576643    6.1202264427
H        2.8437053561    1.8171003641    6.7507916460
H        1.7024046758    2.3378604258    5.4848490647
H        3.5411826551    2.6906345986    1.1091271870
H        5.0197499957    1.8017929788    0.7047432001
H        2.9120813518   -0.7994437544    2.4839569738
H        4.8798570081    0.5672150761    2.8634166771
H        2.3531832310    2.0147789475    3.3360427112
H        4.8166809971    3.3045102006    3.0763326168
H        1.3547954145   -0.0773440352    0.9485650011
30   
torsion grid (30,)
C        5.4417349997   -1.9560449672   -1.4180653664
C        5.5759563132   -2.3937597126   -0.0959957842
C        4.5583073882   -0.9129937500   -1.7155501495
C        4.8283683819   -1.7920069801    0.9198397505
C        3.8162490101   -0.3076076734   -0.6972900422
C        3.9442403292   -0.7441930082    0.6286618466
C        3.3697277840    1.0803263629    4.8211879849
C        2.3410642953    1.5369939490    5.8418522568
C        4.3272059793    2.2265791520    1.4731788794
C        3.1860444633   -0.0749065207    1.7578784699
C        3.9742646883    1.0721566960    2.4177740944
N        3.2171620769    1.6039665870    3.5532394733
O        4.2828225843    0.3142023341    5.1176505220
O        5.1023016494    3.2188461098    2.1396415662
O        1.9287216520    0.4809858466    1.3385776595
H        6.0196016290   -2.4254411513   -2.2099334902
H        6.2583098776   -3.2053725913    0.1429094203
H        4.4501784216   -0.5680019787   -2.7407797121
H        4.9341108996   -2.1357628091    1.9470270087
H        3.1336152835    0.5058612874   -0.9265512270
H        1.7434412892    0.6730608918    6.1478183000
H        2.8647893159    1.9029722103    6.7281447825
H        1.6728237061    2.3184586485    5.4697134077
H        3.4098266196    2.6595845977    1.0488688767
H        4.9397990357    1.8579302965    0.6491796711
H        3.0111944782   -0.8185537251    2.5475335163
H        4.8966209163    0.6575479333    2.8280890483
H        2.2997961401    1.9696802039    3.3198422485
H        4.6663803839    3.3900394718    2.9918481276
H        1.3944595582   -0.2378258519    0.9657941201
30   
torsion grid (45,)
C        5.4950798421   -1.9869182050   -1.4329378411
C        5.4802815687   -2.5461098804   -0.1518449051
C        4.7678626982   -0.8180046519   -1.6869640447
C        4.7417003024   -1.9381363746    0.8683837118
C        4.0367164248   -0.2095424492   -0.6647599599
C        4.0117971066   -0.7675915800    0.6233005609
C        3.4169804129    1.1461663536    4.7986245084
C        2.3605869766    1.5437585169    5.8158124462
C        4.2745440580    2.2768779674    1.4313725027
C        3.2685099631   -0.0977908311    1.7604704841
C        3.9922410408    1.1093681453    2.3851720930
N        3.2033409753    1.6087100648    3.5153746108
O        4.3996300767    0.4792656664    5.1104874938
O        4.9503452821    3.3354989900    2.1025559264
O        1.9582045455    0.3571350866    1.3706220412
H        6.0664082906   -2.4584149163   -2.2283038315
H        6.0403342452   -3.4547282344    0.0532740749
H        4.7745863272   -0.3789502709   -2.6813924584
H        4.7356974777   -2.3746017117    1.8650680246
H        3.4631355850    0.6900143660   -0.8690021132
H        1.8541220912    0.6395877944    6.1665054814
H        2.8568329052    1.9960089384    6.6778231829
H        1.6148384888    2.2403110342    5.4229448318
H        3.3358405514    2.6300373230    0.9798690063
H        4.9378793093    1.9509208217    0.6294851475
H        3.1642960260   -0.8304317169    2.5727394999
H        4.9383222307    0.7577445773    2.8008659276
H        2.2533461250    1.8793051927    3.2824960688
H        4.4888017349    3.4700847676    2.9480149511
H        1.4911316337   -0.3939649163    0.9725689833
30   
torsion grid (60,)
C        5.4986937377   -2.0666932469   -1.4645945186
C        5.3300610069   -2.6970183979   -0.2291750757
C        4.9562395350   -0.7924540453   -1.6702497421
C        4.6273013554   -2.0519968323    0.7939317301
C        4.2587232082   -0.1503364177   -0.6458162032
C        4.0785412620   -0.7768009480    0.5991202039
C        3.5223332069    1.1937281894    4.7717819680
C        2.4602095679    1.5035543680    5.8133798805
C        4.2122849573    2.3512057245    1.3872958962
C        3.3671244831   -0.0983216827    1.7518724031
C        4.0275043543    1.1618220730    2.3402639191
N        3.2276025850    1.6074498461    3.4871018219
O        4.5750045315    0.6347956469    5.0655206965
O        4.7687108097    3.4709311771    2.0673644133
O        2.0053396451    0.2508773580    1.4200913112
H        6.0455822321   -2.5630302170   -2.2620146174
H        5.7462744968   -3.6865570796   -0.0594032900
H        5.0802919103   -0.2977364043   -2.6301640382
H        4.5092231341   -2.5426205719    1.7577584775
H        3.8166023594    0.8234577463   -0.8301179203
H        2.0546728335    0.5602956897    6.1913466993
H        2.9327206464    2.0169131388    6.6542240149
H        1.6391260007    2.1167398811    5.4320036977
H        3.2523885860    2.6104247114    0.9165181377
H        4.9234396552    2.0927311538    0.6025125362
H        3.3455556516   -0.8164800041    2.5833101185
H        5.0024485491    0.8761368217    2.7398824457
H        2.2486527794    1.7762436557    3.2787851277
H        4.2940535218    3.5469430376    2.9131043701
H        1.5973526929   -0.5234238815    1.0023935547
30   
torsion grid (75,)
C        5.5284498033   -2.1557174451   -1.4367801392
C        5.1398667554   -2.8237368146   -0.2729145925
C        5.2307769882   -0.7963378459   -1.5833301024
C        4.4661858940   -2.1297897999    0.7367419430
C        4.5552887413   -0.1079745041   -0.5733895121
C        4.1551187260   -0.7676948229    0.6008559065
C        3.5764005546    1.1914264565    4.7870196408
C        2.5136947887    1.3818203455    5.8563904297
C        4.0759386600    2.4407176618    1.4158074895
C        3.4365238155   -0.0867420421    1.7506671273
C        4.0147381358    1.2128930475    2.3396462647
N        3.2008849552    1.5651345610    3.5110071496
O        4.6935426923    0.7582326164    5.0524348984
O        4.4837016961    3.6019828192    2.1298632110
O        2.0481643904    0.1728888388    1.4333444328
H        6.0585000624   -2.6873493868   -2.2226942670
H        5.3680377652   -3.8786703398   -0.1453607652
H        5.5269841131   -0.2696976373   -2.4868761495
H        4.1862048544   -2.6515222819    1.6495925444
H        4.3034046534    0.9340296308   -0.7294905691
H        2.2448737823    0.4015967942    6.2610081161
H        2.9404181091    1.9673815981    6.6743468490
H        1.6096251130    1.8775634095    5.4923154804
H        3.1022927305    2.5935103262    0.9280431813
H        4.8316984360    2.2915627475    0.6451989896
H        3.4618503693   -0.7960866613    2.5893279949
H        5.0165514765    0.9998922405    2.7174498464
H        2.2040471816    1.6256273793    3.3291777946
H        3.9977094912    3.5947039376    2.9726337858
H        1.6981728900   -0.6113610335    0.9828517973
30   
torsion grid (90,)
C        5.6739576289   -2.2149595293   -1.2038387938
C        4.8532556814   -2.8783232522   -0.2871335549
C        5.7448925458   -0.8185589869   -1.1792169046
C        4.1095224088   -2.1428239310    0.6393032907
C        4.9915864590   -0.0872225581   -0.2567475907
C        4.1580376871   -0.7394387879    0.6642522590
C        3.7746191697    1.1393404525    4.6994854634
C        2.9415115349    1.3020900589    5.9601906042
C        3.4542514791    2.5361555602    1.3373840512
C        3.2609912311   -0.0291962731    1.6639547239
C        3.7671077729    1.3162950924    2.2173599784
N        3.1815501395    1.5799768599    3.5364545441
O        4.9067379105    0.6643181650    4.7260437070
O        4.1601124131    3.6902742242    1.7868796858
O        1.9482595372    0.2253112066    1.1150000450
H        6.2612971990   -2.7801444113   -1.9227626629
H        4.8011940143   -3.9639943694   -0.2850476889
H        6.3916094696   -0.2952636636   -1.8787485824
H        3.4926084347   -2.6677640826    1.3669194831
H        5.0776657787    0.9930925476   -0.2555130016
H        2.7157804184    0.3097807455    6.3616609592
H        3.5381348768    1.8293754638    6.7085089339
H        2.0046237570    1.8434311533    5.8011162775
H        2.3707174802    2.7114532979    1.3251627661
H        3.7599602479    2.3734826782    0.3049686468
H        3.1593724006   -0.6990769393    2.5279121656
H        4.8450236874    1.2476250880    2.3727474201
H        2.1792984155    1.7340908442    3.5525198075
H        3.9995529932    3.7677528557    2.7422322535
H        1.6608063436   -0.5773114428    0.6514290931
30   
torsion grid (105,)
C        5.6496797052   -2.1597625001   -1.2808376644
C        4.7028797933   -2.8358267179   -0.5041855019
C        5.8702840150   -0.7974302798   -1.0624547877
C        3.9824343017   -2.1463932871    0.4730389231
C        5.1389691932   -0.1083716239   -0.0893803233
C        4.1781910007   -0.7712622954    0.6869275694
C        3.7819574548    1.2514734173    4.7153038947
C        2.9391182809    1.4230285803    5.9682173881
C        3.4019993062    2.4354558994    1.2818676426
C        3.3043567203   -0.1035465994    1.7376148124
C        3.7576701145    1.2794909177    2.2288558266
N        3.1577469103    1.5809872042    3.5322226522
O        4.9466554717    0.8644862550    4.7639680311
O        4.0848627730    3.6321628133    1.6491199946
O        1.9469145396    0.0700079875    1.2700797954
H        6.2189394807   -2.6925397052   -2.0379610420
H        4.5365683174   -3.9000366269   -0.6496787975
H        6.6166520240   -0.2667633181   -1.6478661270
H        3.2726744110   -2.6908083790    1.0950895438
H        5.3488428397    0.9434717893    0.0683230412
H        2.7849041885    0.4403498748    6.4236516018
H        3.4960069994    2.0316240035    6.6847432609
H        1.9658196281    1.8860632106    5.7828580254
H        2.3145138754    2.5834709578    1.2759188844
H        3.6981598099    2.2141871057    0.2569508958
H        3.2948621657   -0.7638583547    2.6156873776
H        4.8364283649    1.2606013944    2.3924904885
H        2.1471185378    1.6638391570    3.5431969992
H        3.9248297678    3.7716874375    2.5974452491
H        1.6827041984   -0.7383805145    0.8033268674
30   
torsion grid (120,)
C        5.6070451358   -2.0850584169   -1.3641871530
C        4.5649384200   -2.7491138736   -0.7080199365
C        5.9460696759   -0.7872420085   -0.9752530752
C        3.8686190005   -2.1076581682    0.3175372741
C        5.2399467079   -0.1455105305    0.0481615017
C        4.1814967257   -0.7918214027    0.7004147404
C        3.7844542354    1.3662561231    4.7442696302
C        2.9205195496    1.5304943692    5.9836944484
C        3.3914853282    2.3427294644    1.2582897142
C        3.3602733695   -0.1706304686    1.8222548501
C        3.7678273196    1.2417057987    2.2607571139
N        3.1394555861    1.5684533058    3.5437579069
O        4.9799223532    1.0935499933    4.8182818899
O        4.0181295786    3.5794931582    1.5910869840
O        1.9577372096   -0.0795144821    1.4834540878
H        6.1565160902   -2.5800490070   -2.1604807635
H        4.3050277074   -3.7674977416   -0.9850395967
H        6.7648953358   -0.2684079016   -1.4668133169
H        3.0868429681   -2.6546454060    0.8442816675
H        5.5402782317    0.8557992080    0.3367369759
H        2.8556572271    0.5655465556    6.4950701137
H        3.4131086877    2.2288933063    6.6645265517
H        1.9096254888    1.8887511756    5.7698495039
H        2.2996130630    2.4465327653    1.2207614459
H        3.7262609801    2.0895840106    0.2521975802
H        3.4670207271   -0.8203187286    2.7027996193
H        4.8435488108    1.2644473443    2.4424627955
H        2.1254394437    1.5537756889    3.5489168647
H        3.8171905764    3.7573995310    2.5251171148
H        1.6973617132   -0.8874409202    1.0151815614
30   
torsion grid (135,)
C        5.5508582689   -1.9671812178   -1.4137902992
C        4.3967440861   -2.5682255507   -0.9006467645
C        6.0165544555   -0.7820060594   -0.8406983466
C        3.7194267407   -1.9801185184    0.1691159413
C        5.3332492365   -0.1965847980    0.2303311864
C        4.1707272119   -0.7841036069    0.7494392599
C        3.7789161614    1.5210220703    4.7829828496
C        2.9058385169    1.6995773223    6.0140933053
C        3.3751078748    2.2791808395    1.2540377587
C        3.4049292819   -0.2026487088    1.9346306902
C        3.7696684426    1.2400059601    2.3136126484
N        3.1194819175    1.5963401158    3.5757459924
O        4.9916621820    1.3447504676    4.8688199430
O        3.8935187459    3.5667421889    1.5782439736
O        1.9779800709   -0.1792416914    1.7179982382
H        6.0810094126   -2.4200352151   -2.2474174501
H        4.0254138018   -3.4945068827   -1.3314717242
H        6.9142628920   -0.3060222846   -1.2265204374
H        2.8283307834   -2.4751711208    0.5510737915
H        5.7288789767    0.7184475915    0.6580024349
H        2.9288926543    0.7739770903    6.5966955158
H        3.3352636722    2.4881011718    6.6369467694
H        1.8667526021    1.9501572878    5.7828423385
H        2.2823373043    2.3039122912    1.1506210656
H        3.7918448309    2.0163411512    0.2812924875
H        3.6231642720   -0.8242810166    2.8148617982
H        4.8411200679    1.3064545706    2.5054319483
H        2.1100397663    1.5002017445    3.5835635747
H        3.6353776343    3.7527919196    2.4966105126
H        1.6508491941   -1.0893421871    1.6670287011
30   
torsion grid (150,)
C        5.5391448944   -1.8961619278   -1.4673210345
C        4.2920646140   -2.3920834665   -1.0767802716
C        6.1261893430   -0.8657226158   -0.7277330875
C        3.6438595576   -1.8617706540    0.0422014778
C        5.4762382671   -0.3392005129    0.3919215385
C        4.2284115675   -0.8366503516    0.7990141291
C        3.8026623902    1.5482672045    4.7894672698
C        2.9250632497    1.7454223476    6.0143525128
C        3.3624160199    2.1461297997    1.2192407084
C        3.5108369834   -0.2906118347    2.0302173778
C        3.8057689637    1.1895289651    2.3340791743
N        3.1429957579    1.5783218385    3.5792660924
O        5.0183347959    1.3972749673    4.8806691157
O        3.7444545286    3.4878701291    1.5096805315
O        2.0759997289   -0.3721887243    1.9181978960
H        6.0436169026   -2.3028915072   -2.3398217089
H        3.8180630639   -3.1867230484   -1.6473643514
H        7.0914895336   -0.4637090953   -1.0242311257
H        2.6612634127   -2.2421773200    0.3067840828
H        5.9608629778    0.4569225266    0.9481644534
H        2.9695788194    0.8403765889    6.6272024413
H        3.3353728161    2.5638737021    6.6109951424
H        1.8807772072    1.9644856415    5.7748409857
H        2.2771045667    2.0645035260    1.0688692402
H        3.8499281012    1.8830462033    0.2796476660
H        3.8392915426   -0.8628542767    2.9089913440
H        4.8724056079    1.3196401077    2.5160269643
H        2.1393556462    1.4324617078    3.5920628568
H        3.4577682591    3.6713135667    2.4202836417
H        1.7987993896   -1.2796877098    2.1111927326
30   
torsion grid (165,)
C        5.5502413596   -1.7989226186   -1.4720844958
C        4.2199126053   -2.1434479683   -1.2217762549
C        6.2308424860   -0.9823694003   -0.5621315078
C        3.5763173287   -1.6769409421   -0.0700374962
C        5.5870824834   -0.5210467019    0.5877882085
C        4.2544763305   -0.8749794470    0.8558805578
C        3.8397441879    1.6103910778    4.7585794500
C        2.9973774031    1.8294025327    6.0040340874
C        3.2498530521    2.0267262905    1.1718517902
C        3.5536074424   -0.3484572294    2.1026074351
C        3.7769772737    1.1611682191    2.3227830955
N        3.1408689853    1.5838913150    3.5701600913
O        5.0611625832    1.4902091726    4.8144228222
O        3.5601667503    3.4023864993    1.3767562344
O        2.1255374822   -0.5129374215    2.0567979705
H        6.0500311301   -2.1550562517   -2.3690626321
H        3.6758631265   -2.7659848214   -1.9276865395
H        7.2630448839   -0.6984687990   -0.7502278957
H        2.5292668956   -1.9158381980    0.0882438698
H        6.1379333574    0.1052271841    1.2840752966
H        3.0855880210    0.9485340429    6.6466398411
H        3.4049283970    2.6790884769    6.5573602858
H        1.9405285536    2.0132054684    5.7916082262
H        2.1675898099    1.8768489931    1.0545091587
H        3.7326121633    1.7358597076    0.2375183057
H        3.9554662507   -0.8619590372    2.9869462791
H        4.8414880390    1.3546374833    2.4507077561
H        2.1439155023    1.4047147954    3.6235828616
H        3.2947055949    3.6184237426    2.2866455054
H        1.9145636682   -1.4384581626    2.2520485534
30   
torsion grid (180,)
C        5.5847600133   -1.7319331479   -1.4606803197
C        4.2046380623   -1.9001859715   -1.3250993548
C        6.3119977151   -1.1379672177   -0.4219553273
C        3.5534777443   -1.4782291845   -0.1598223526
C        5.6621642812   -0.7218441327    0.7411652712
C        4.2769236814   -0.8974292460    0.8876840711
C        3.9077036159    1.6245204157    4.7295079957
C        3.1198326154    1.8528814315    6.0083351880
C        3.1285647317    1.9400734513    1.1587800431
C        3.5906810670   -0.3880447026    2.1449928577
C        3.7484144833    1.1369944462    2.3078282113
N        3.1580087786    1.5741317041    3.5727795941
O        5.1316815006    1.5170779214    4.7320237464
O        3.3823789779    3.3344770916    1.3078353529
O        2.1761513921   -0.6344210771    2.1613534505
H        6.0900374744   -2.0550059281   -2.3670887427
H        3.6298062547   -2.3513376334   -2.1300346151
H        7.3853179830   -0.9969169198   -0.5195442866
H        2.4755678850   -1.5769790736   -0.0751532110
H        6.2390255890   -0.2691310517    1.5447546796
H        3.2478843002    0.9834953121    6.6597752538
H        3.5410234874    2.7162164831    6.5294325048
H        2.0523380761    2.0207465743    5.8409201132
H        2.0501335143    1.7377112141    1.0959434439
H        3.5827011996    1.6408323234    0.2126547723
H        4.0582863765   -0.8513280049    3.0246532164
H        4.8103827049    1.3754909588    2.3686669154
H        2.1686668604    1.3743620532    3.6751662782
H        3.1604832179    3.5646385770    2.2259172325
H        2.0335272392   -1.5845509013    2.2931412714
