42
0 1 C19H21NO
C                   -10.428972851939     0.921255618233    -1.045618353570
C                    -9.792262302304    -0.057864930017    -0.275571979973
C                    -9.720168358021     1.558856767822    -2.069353573155
C                    -8.460667143566    -0.395151381960    -0.527095475149
C                    -8.388527192616     1.220558354424    -2.319390117411
C                    -5.819415571310    -0.183965282226    -3.129775003014
C                    -5.432988035508    -0.407246436207    -0.772190049310
C                    -4.490725299119    -0.523436976753    -3.374380532764
C                    -4.099977661114    -0.743717373151    -1.023377723336
C                    -7.736390539903     0.238520219373    -1.552553457602
C                    -6.322271666274    -0.119498522541    -1.818120490432
C                    -3.595221089698    -0.813832665634    -2.328854764038
C                    -0.405164309095     1.692512553492    -1.765809333451
C                    -2.298705691518    -3.578578138333    -2.612426538160
C                    -1.723818227475    -3.121134295887    -1.240862301902
C                    -2.055407885658    -2.394592385129    -3.568195379829
C                    -1.320472848623    -1.640289351056    -1.436037626533
C                    -2.134135008068    -1.145880146773    -2.653493102756
C                    -1.472796535173     0.078371520616    -3.320333637489
N                    -1.487642633569     1.266982578981    -2.475757241736
O                     0.716049617863     1.198542777965    -1.810535433631
H                   -11.465396735599     1.183927797716    -0.850578821103
H                   -10.336485132346    -0.566974317371     0.515879712339
H                   -10.202223322350     2.327523655807    -2.668157079523
H                    -7.985704635556    -1.177302599582     0.059075952063
H                    -7.840731982477     1.742126134390    -3.099796479017
H                    -6.483591402448     0.005625106123    -3.968866212390
H                    -5.777202607788    -0.341234976494     0.256614730287
H                    -4.150277754190    -0.572521856699    -4.405694178559
H                    -3.453074422845    -0.946722446125    -0.177091640684
H                    -0.643300245270     2.568985952302    -1.132751482431
H                    -1.834322933520    -4.499063782557    -2.977736495354
H                    -3.372787254267    -3.770326431971    -2.528560485897
H                    -2.477233138144    -3.229534151951    -0.455164035895
H                    -0.861644324045    -3.721915400993    -0.937227043718
H                    -1.045975235973    -2.451341158697    -3.994739543632
H                    -2.761713509536    -2.370722545265    -4.402312598597
H                    -1.448223217709    -1.030137062601    -0.539388595135
H                    -0.259896623846    -1.570377304955    -1.695033971774
H                    -1.973137202142     0.315695233274    -4.264975962084
H                    -0.426185175275    -0.140162866159    -3.539987990789
H                    -2.383198702356     1.694028127607    -2.272045992358
