
  -OEChem-05262117483D

 49 49  0     1  0  0  0  0  0999 V2000
    1.8821    0.2230    0.3430 C   0  0  0  0  0  0  0  0  0  0  0  0
   -0.6541   -0.6900   -1.8083 C   0  0  0  0  0  0  0  0  0  0  0  0
   -0.4384    1.0437    2.2362 C   0  0  0  0  0  0  0  0  0  0  0  0
    0.2726    2.2211    0.3860 C   0  0  0  0  0  0  0  0  0  0  0  0
   -0.4905    0.0495    1.0800 C   0  0  1  0  0  0  0  0  0  0  0  0
    0.4482    0.7096    0.0252 C   0  0  2  0  0  0  0  0  0  0  0  0
    3.7334   -2.0829    0.9737 C   0  0  0  0  0  0  0  0  0  0  0  0
    3.5059   -2.4436   -1.5116 C   0  0  0  0  0  0  0  0  0  0  0  0
    4.6476   -0.3591   -0.6722 C   0  0  0  0  0  0  0  0  0  0  0  0
   -2.6980   -1.2193   -3.8904 C   0  0  0  0  0  0  0  0  0  0  0  0
   -0.6770   -1.7282   -5.3064 C   0  0  0  0  0  0  0  0  0  0  0  0
   -1.2653   -3.2711   -3.3952 C   0  0  0  0  0  0  0  0  0  0  0  0
    3.5714   -1.4081   -0.3891 C   0  0  0  0  0  0  0  0  0  0  0  0
   -1.3001   -1.8350   -3.9149 C   0  0  0  0  0  0  0  0  0  0  0  0
    0.1037    0.4193   -1.3948 N   0  0  0  0  0  0  0  0  0  0  0  0
    2.5303    0.6894    1.2577 O   0  0  0  0  0  0  0  0  0  0  0  0
   -1.4489   -1.2842   -1.1138 O   0  0  0  0  0  0  0  0  0  0  0  0
    1.9112    2.1641   -1.8423 O   0  0  0  0  0  0  0  0  0  0  0  0
    0.0678    1.8301   -3.5577 O   0  0  0  0  0  0  0  0  0  0  0  0
   -0.5335    2.2958    1.5710 O   0  0  0  0  0  0  0  0  0  0  0  0
    1.9657    0.2100   -3.2922 O   0  0  0  0  0  0  0  0  0  0  0  0
    2.2331   -0.7698   -0.4711 O   0  0  0  0  0  0  0  0  0  0  0  0
   -0.3762   -0.9895   -3.0986 O   0  0  0  0  0  0  0  0  0  0  0  0
   -0.0589   -1.2187    1.4546 F   0  0  0  0  0  0  0  0  0  0  0  0
    1.0104    1.3089   -2.5862 S   0  0  0  0  0  0  0  0  0  0  0  0
   -1.2938    0.9432    2.9071 H   0  0  0  0  0  0  0  0  0  0  0  0
    0.4966    0.9406    2.7998 H   0  0  0  0  0  0  0  0  0  0  0  0
    1.2458    2.6813    0.5567 H   0  0  0  0  0  0  0  0  0  0  0  0
   -0.2557    2.7567   -0.4034 H   0  0  0  0  0  0  0  0  0  0  0  0
   -1.4999   -0.0398    0.6905 H   0  0  0  0  0  0  0  0  0  0  0  0
    3.7949   -1.3489    1.7775 H   0  0  0  0  0  0  0  0  0  0  0  0
    2.8906   -2.7524    1.1696 H   0  0  0  0  0  0  0  0  0  0  0  0
    4.6527   -2.6774    0.9713 H   0  0  0  0  0  0  0  0  0  0  0  0
    3.3638   -1.9489   -2.4760 H   0  0  0  0  0  0  0  0  0  0  0  0
    2.6789   -3.1401   -1.3440 H   0  0  0  0  0  0  0  0  0  0  0  0
    4.4388   -3.0136   -1.5469 H   0  0  0  0  0  0  0  0  0  0  0  0
    4.4287    0.1640   -1.6072 H   0  0  0  0  0  0  0  0  0  0  0  0
    4.7154    0.3719    0.1341 H   0  0  0  0  0  0  0  0  0  0  0  0
    5.6165   -0.8589   -0.7723 H   0  0  0  0  0  0  0  0  0  0  0  0
   -3.1558   -1.3012   -2.9040 H   0  0  0  0  0  0  0  0  0  0  0  0
   -2.6549   -0.1658   -4.1816 H   0  0  0  0  0  0  0  0  0  0  0  0
   -3.3314   -1.7487   -4.6087 H   0  0  0  0  0  0  0  0  0  0  0  0
    0.3370   -2.1429   -5.3139 H   0  0  0  0  0  0  0  0  0  0  0  0
   -0.6384   -0.6857   -5.6346 H   0  0  0  0  0  0  0  0  0  0  0  0
   -1.2747   -2.2968   -6.0239 H   0  0  0  0  0  0  0  0  0  0  0  0
   -0.2357   -3.6404   -3.3593 H   0  0  0  0  0  0  0  0  0  0  0  0
   -1.7012   -3.3440   -2.3990 H   0  0  0  0  0  0  0  0  0  0  0  0
   -1.8329   -3.9116   -4.0779 H   0  0  0  0  0  0  0  0  0  0  0  0
    1.3706   -0.4780   -3.6659 H   0  0  0  0  0  0  0  0  0  0  0  0
  1  6  1  0  0  0  0
  1 16  2  0  0  0  0
  1 22  1  0  0  0  0
  2 15  1  0  0  0  0
  2 17  2  0  0  0  0
  2 23  1  0  0  0  0
  3  5  1  0  0  0  0
  3 20  1  0  0  0  0
  3 26  1  0  0  0  0
  3 27  1  0  0  0  0
  4  6  1  0  0  0  0
  4 20  1  0  0  0  0
  4 28  1  0  0  0  0
  4 29  1  0  0  0  0
  5  6  1  0  0  0  0
  5 24  1  0  0  0  0
  5 30  1  0  0  0  0
  6 15  1  0  0  0  0
  7 13  1  0  0  0  0
  7 31  1  0  0  0  0
  7 32  1  0  0  0  0
  7 33  1  0  0  0  0
  8 13  1  0  0  0  0
  8 34  1  0  0  0  0
  8 35  1  0  0  0  0
  8 36  1  0  0  0  0
  9 13  1  0  0  0  0
  9 37  1  0  0  0  0
  9 38  1  0  0  0  0
  9 39  1  0  0  0  0
 10 14  1  0  0  0  0
 10 40  1  0  0  0  0
 10 41  1  0  0  0  0
 10 42  1  0  0  0  0
 11 14  1  0  0  0  0
 11 43  1  0  0  0  0
 11 44  1  0  0  0  0
 11 45  1  0  0  0  0
 12 14  1  0  0  0  0
 12 46  1  0  0  0  0
 12 47  1  0  0  0  0
 12 48  1  0  0  0  0
 13 22  1  0  0  0  0
 14 23  1  0  0  0  0
 15 25  1  0  0  0  0
 18 25  2  0  0  0  0
 19 25  2  0  0  0  0
 21 25  1  0  0  0  0
 21 49  1  0  0  0  0
M  END
$$$$
