49
0 1 C14FH24NO8S
C                     1.882136803892     0.222972167408     0.342972445197
C                    -0.654138937567    -0.689960805661    -1.808308788223
C                    -0.438380619731     1.043700329603     2.236245772903
C                     0.272624515828     2.221121671260     0.386014904580
C                    -0.490459356789     0.049517715154     1.079994726487
C                     0.448171895700     0.709557264376     0.025215220004
C                     3.733447431855    -2.082853365350     0.973724274227
C                     3.505934966314    -2.443580235142    -1.511620875384
C                     4.647556257853    -0.359119197675    -0.672231030141
C                    -2.697973257244    -1.219336489536    -3.890382347452
C                    -0.676959895281    -1.728196507422    -5.306359744363
C                    -1.265313771021    -3.271084162263    -3.395230771044
C                     3.571381920946    -1.408060635959    -0.389065828162
C                    -1.300137499769    -1.834979324933    -3.914889893480
N                     0.103693226950     0.419268855590    -1.394800053030
O                     2.530313925168     0.689385463031     1.257691026219
O                    -1.448913211874    -1.284157300525    -1.113797820565
O                     1.911192982594     2.164114452833    -1.842326939919
O                     0.067769592786     1.830148619638    -3.557682734778
O                    -0.533471245605     2.295799910661     1.571027134570
O                     1.965697944246     0.210036843251    -3.292152580307
O                     2.233134729498    -0.769844471324    -0.471128084650
O                    -0.376228179535    -0.989515795336    -3.098574984553
F                    -0.058912806729    -1.218744694786     1.454591833689
S                     1.010370325244     1.308890582968    -2.586175527851
H                    -1.293783118656     0.943183398900     2.907114737946
H                     0.496582191122     0.940587403674     2.799838171639
H                     1.245775267794     2.681306154230     0.556672036137
H                    -0.255695570639     2.756738185401    -0.403439186097
H                    -1.499874072659    -0.039794200327     0.690523426872
H                     3.794928102750    -1.348911440478     1.777494360029
H                     2.890593185124    -2.752383866599     1.169587677402
H                     4.652732108400    -2.677425094483     0.971333710886
H                     3.363758718454    -1.948922449864    -2.476029672748
H                     2.678856677591    -3.140115940643    -1.343998876760
H                     4.438824603733    -3.013614662612    -1.546860929010
H                     4.428690082259     0.164017142921    -1.607161296595
H                     4.715432993149     0.371866891468     0.134112698441
H                     5.616526155307    -0.858897449813    -0.772313384643
H                    -3.155841536855    -1.301184842012    -2.903972817051
H                    -2.654901349149    -0.165848413576    -4.181557191567
H                    -3.331418682945    -1.748691143908    -4.608735516047
H                     0.337000680374    -2.142870459082    -5.313941102215
H                    -0.638415092932    -0.685683037634    -5.634572405258
H                    -1.274660331754    -2.296762235294    -6.023861170487
H                    -0.235657989801    -3.640372526645    -3.359339575444
H                    -1.701170903387    -3.344003702372    -2.398980883487
H                    -1.832909427106    -3.911631135548    -4.077885163456
H                     1.370579019419    -0.478029121697    -3.665916281028
