19   
torsion grid (-165,)
C        1.5483123041   -1.4462731525   -0.0902663237
C        0.6745013184   -0.5156567664    0.4878537741
C        2.5896928691   -1.9734227375    0.6694849649
C        0.8590357031   -0.1056530205    1.8072482995
C        3.8294168355   -2.5592001395    4.1297002082
C        5.8971846054   -3.0956900193    2.9832470253
C        2.7747630927   -1.6011064248    2.0131311015
C        1.9062039510   -0.6377421434    2.5681358591
C        3.8658594039   -2.2162535490    2.7927304839
N        5.0601002787   -2.5348191289    2.1601946977
O        2.0387355462   -0.1638623363    3.8510796484
S        5.3193302952   -3.2952184628    4.6167579512
H        1.4160975489   -1.7566396938   -1.1227233898
H       -0.1440373491   -0.0985962204   -0.0930073907
H        3.2786602230   -2.6930370264    0.2380995640
H        0.2122192629    0.6360980492    2.2663660977
H        2.9915212226   -2.5089304605    4.8130567936
H        6.8958264463   -3.4157782023    2.7048655264
H        2.9156578657   -0.4155467096    4.1904449049
19   
torsion grid (-150,)
C        1.5739171312   -1.4237148263   -0.1033867801
C        0.6731845096   -0.5241071656    0.4809515467
C        2.6136074669   -1.9502269158    0.6596525777
C        0.8280718671   -0.1440640884    1.8138942862
C        3.8611310253   -2.5047444420    4.1450685316
C        5.8739633453   -3.1517056493    2.9570690437
C        2.7681259203   -1.6105418717    2.0161598033
C        1.8655160874   -0.6842091435    2.5798517864
C        3.8636000454   -2.2193304830    2.7941153048
N        5.0274611061   -2.6004380439    2.1382451622
O        1.9624919901   -0.2546368680    3.8862747229
S        5.3426304102   -3.2672766912    4.6145743815
H        1.4659890198   -1.7097767570   -1.1457525886
H       -0.1402112383   -0.1044912248   -0.1051710672
H        3.3249173742   -2.6428620767    0.2212139381
H        0.1620514558    0.5755800767    2.2806810057
H        3.0523216829   -2.3872468014    4.8536286032
H        6.8533371118   -3.5129508419    2.6612777231
H        2.8967557605   -0.2851598324    4.1570532414
19   
torsion grid (-135,)
C        1.6034208992   -1.4004815893   -0.1062478299
C        0.6818464275   -0.5255703686    0.4812946455
C        2.6404441025   -1.9301388760    0.6591268888
C        0.8149905993   -0.1749653548    1.8255686804
C        3.8995985971   -2.4606630379    4.1610887557
C        5.8583746309   -3.2119767700    2.9424552123
C        2.7731800380   -1.6183614675    2.0249727993
C        1.8451997349   -0.7214431284    2.5944102931
C        3.8705977166   -2.2263083563    2.8011876258
N        5.0045219793   -2.6658368751    2.1284145890
O        1.9155380264   -0.3321171331    3.9212582019
S        5.3701633368   -3.2511542750    4.6169243286
H        1.5146892878   -1.6659313680   -1.1559838219
H       -0.1276875316   -0.1029692173   -0.1079876970
H        3.3669153427   -2.6026769112    0.2149459394
H        0.1325424551    0.5235481920    2.3006229185
H        3.1201101654   -2.2778992581    4.8872413000
H        6.8177515508   -3.6133084124    2.6331453849
H        2.8416241024   -0.1276331769    4.1374734295
19   
torsion grid (-120,)
C        1.6292440920   -1.3762340732   -0.1035352819
C        0.6932550999   -0.5220878430    0.4903525833
C        2.6637317848   -1.9120457773    0.6615964248
C        0.8091828375   -0.2000968972    1.8440941677
C        3.9393733608   -2.4300422011    4.1705029812
C        5.8481995728   -3.2677353326    2.9280591289
C        2.7827366745   -1.6248388840    2.0345089169
C        1.8374613048   -0.7510697652    2.6106150751
C        3.8820519407   -2.2363616806    2.8058054457
N        4.9878932156   -2.7246824511    2.1192213647
O        1.8901661150   -0.4008987840    3.9551568874
S        5.3999971759   -3.2446671256    4.6142530383
H        1.5536282815   -1.6226478168   -1.1590755028
H       -0.1150338446   -0.0968335299   -0.0986481956
H        3.3997987630   -2.5694428051    0.2111364977
H        0.1111775172    0.4761233825    2.3288757344
H        3.1876716100   -2.1907730457    4.9083554549
H        6.7888909152   -3.7032233794    2.6078385636
H        2.7418836569    0.0338835319    4.1304220538
19   
torsion grid (-105,)
C        1.6485203497   -1.3563721377   -0.0989495691
C        0.7030226282   -0.5156666033    0.4983386488
C        2.6782015771   -1.9014995501    0.6661633885
C        0.8056896270   -0.2202339651    1.8594644508
C        3.9745845515   -2.4105000938    4.1765872088
C        5.8363684483   -3.3206439212    2.9120741862
C        2.7888146470   -1.6327937537    2.0440777707
C        1.8337445491   -0.7732390610    2.6244803471
C        3.8890808976   -2.2504532324    2.8096364556
N        4.9678794799   -2.7805822589    2.1103653188
O        1.8723165133   -0.4603691495    3.9831526671
S        5.4280500861   -3.2443194796    4.6070159036
H        1.5828479963   -1.5877005963   -1.1586555815
H       -0.1040608245   -0.0873187542   -0.0900533357
H        3.4190369433   -2.5502065758    0.2112983993
H        0.0932204821    0.4353474571    2.3518279974
H        3.2502726140   -2.1233504144    4.9237669378
H        6.7594284172   -3.7849812447    2.5812894979
H        2.5868444787    0.1802279727    4.1351843106
19   
torsion grid (-90,)
C        1.6633745909   -1.3430146211   -0.0961646442
C        0.7134081809   -0.5093411287    0.5038971607
C        2.6872795895   -1.8966948116    0.6700531512
C        0.8052544414   -0.2339142497    1.8698017092
C        4.0075086860   -2.3896096041    4.1795736297
C        5.8260624373   -3.3643842369    2.8989111217
C        2.7944484323   -1.6392401817    2.0510560453
C        1.8353243067   -0.7863219339    2.6334663931
C        3.8954661943   -2.2621267039    2.8115292288
N        4.9492824524   -2.8297921290    2.1029719648
O        1.8659776645   -0.5057140899    4.0011479281
S        5.4558671263   -3.2371531593    4.5997006918
H        1.6041229929   -1.5641526381   -1.1584666017
H       -0.0929496921   -0.0785725985   -0.0836867903
H        3.4297442942   -2.5418484680    0.2131351691
H        0.0799135006    0.4048810990    2.3660219713
H        3.3089149173   -2.0611367814    4.9334740488
H        6.7329257371   -3.8542511806    2.5602597376
H        2.3916584003    0.2981744963    4.1431876063
19   
torsion grid (-75,)
C        1.6782212310   -1.3332094519   -0.0934965081
C        0.7264706978   -0.5015985049    0.5069611180
C        2.6963854201   -1.8956663890    0.6732657960
C        0.8098301988   -0.2403082030    1.8757382840
C        4.0389984457   -2.3641746413    4.1821071899
C        5.8147976847   -3.4057983784    2.8919062259
C        2.8013126869   -1.6438696543    2.0559972624
C        1.8418274386   -0.7923119882    2.6389440553
C        3.9014059803   -2.2711077549    2.8138986883
N        4.9310746074   -2.8765463316    2.1003997997
O        1.8702399080   -0.5385132516    4.0106878068
S        5.4818943771   -3.2242493829    4.5955316660
H        1.6234844404   -1.5472399608   -1.1574361869
H       -0.0784317480   -0.0679813642   -0.0805336406
H        3.4386656251   -2.5406766064    0.2160574162
H        0.0744809712    0.3874669426    2.3721459200
H        3.3657087534   -1.9967569505    4.9405390206
H        6.7051701019   -3.9218900182    2.5484067725
H        2.1724699404    0.3723799985    4.1534645307
19   
torsion grid (-60,)
C        1.6919646685   -1.3288058475   -0.0937234019
C        0.7412002427   -0.4957641383    0.5062831338
C        2.7046752445   -1.8973392324    0.6753059673
C        0.8192162824   -0.2426677680    1.8764542399
C        4.0711954245   -2.3400914520    4.1830548882
C        5.8033816055   -3.4446484570    2.8900563667
C        2.8098415470   -1.6491464592    2.0588617716
C        1.8512789436   -0.7956703429    2.6407202830
C        3.9084192660   -2.2800637616    2.8156329328
N        4.9143248941   -2.9224378738    2.1002042333
O        1.8823286445   -0.5589402727    4.0119049326
S        5.5070953460   -3.2128085786    4.5942635568
H        1.6402356264   -1.5391935466   -1.1584381629
H       -0.0614503563   -0.0581542921   -0.0813325630
H        3.4459180031   -2.5439986228    0.2190019381
H        0.0778695284    0.3812478266    2.3699340614
H        3.4224889636   -1.9368299133    4.9442680568
H        6.6777695759   -3.9858422588    2.5441994939
H        1.9464400032    0.3971104277    4.1621239822
19   
torsion grid (-45,)
C        1.7027284377   -1.3245187955   -0.0937429472
C        0.7541882257   -0.4915005405    0.5091359520
C        2.7125749852   -1.8954069211    0.6772663672
C        0.8303463928   -0.2433129856    1.8801193671
C        4.1086637661   -2.3087829232    4.1806523657
C        5.7917821877   -3.4851538392    2.8856784520
C        2.8196398469   -1.6518054354    2.0613796475
C        1.8617316679   -0.7979888636    2.6453914214
C        3.9177750937   -2.2860463082    2.8155689452
N        4.8962529856   -2.9693575573    2.0993470208
O        1.9008670261   -0.5701754622    4.0131492501
S        5.5367349319   -3.1963166720    4.5877885484
H        1.6521618736   -1.5317448175   -1.1590467947
H       -0.0473324238   -0.0497004913   -0.0768383408
H        3.4531711901   -2.5426704119    0.2210413146
H        0.0862717214    0.3811546481    2.3701420604
H        3.4876849440   -1.8677125668    4.9436828610
H        6.6473266009   -4.0546694095    2.5381605446
H        1.7284224594    0.3699483333    4.1778319324
19   
torsion grid (-30,)
C        1.7286820732   -1.3294742389   -0.0991847328
C        0.7777536505   -0.4945001396    0.4964941388
C        2.7327407715   -1.8994544419    0.6803176287
C        0.8449071122   -0.2434130275    1.8673442382
C        4.1359406282   -2.2658615007    4.1885911299
C        5.7712082905   -3.5279068384    2.9121969352
C        2.8309080512   -1.6550383286    2.0645033621
C        1.8682654514   -0.8009273716    2.6418649811
C        3.9228820406   -2.2893026577    2.8266601570
N        4.8747466528   -3.0206306210    2.1216514917
O        1.9107531522   -0.5682463844    4.0040834274
S        5.5512982099   -3.1690507221    4.6057882613
H        1.6854888659   -1.5376701225   -1.1645117134
H       -0.0180440809   -0.0501095080   -0.0952320236
H        3.4757929970   -2.5486639182    0.2309684541
H        0.0987523041    0.3876879416    2.3470815893
H        3.5402982614   -1.7806827635    4.9448406783
H        6.6070482559   -4.1306926963    2.5728889009
H        1.5197513772    0.3014295346    4.1825708768
19   
torsion grid (-15,)
C        1.7299998408   -1.3199749112   -0.0965335152
C        0.7822846007   -0.4857975503    0.5044653014
C        2.7366919601   -1.8900178380    0.6800801480
C        0.8543372457   -0.2347989169    1.8751992573
C        4.1781391730   -2.2237796176    4.1775572325
C        5.7559922318   -3.5613088656    2.9059232137
C        2.8387195830   -1.6503567729    2.0643039663
C        1.8750152090   -0.8001715690    2.6475416831
C        3.9322570497   -2.2862484468    2.8223072427
N        4.8523496601   -3.0599100376    2.1199968056
O        1.9347466196   -0.5613179399    4.0044784298
S        5.5835469806   -3.1440018867    4.5915622201
H        1.6838349641   -1.5258949781   -1.1621196424
H       -0.0133699272   -0.0367906672   -0.0838801586
H        3.4782549318   -2.5389071119    0.2279130161
H        0.1139082570    0.4045920154    2.3540779847
H        3.6141992298   -1.6984886936    4.9312041769
H        6.5697705108   -4.1940681150    2.5675297103
H        1.3559780709    0.1893431823    4.2123124166
19   
torsion grid (0,)
C        1.7412174535   -1.3204809599   -0.1058199780
C        0.7918575232   -0.4842295574    0.4894518932
C        2.7474241019   -1.8863581795    0.6746485504
C        0.8633831214   -0.2261400607    1.8588866195
C        4.2078915543   -2.1707589317    4.1691506587
C        5.7372721416   -3.5836760223    2.9205524517
C        2.8450033483   -1.6441992910    2.0586250324
C        1.8759316091   -0.7970225900    2.6378700873
C        3.9367126281   -2.2771369718    2.8214296370
N        4.8297071635   -3.0933353303    2.1322768840
O        1.9441232427   -0.5404328676    3.9899268386
S        5.6021990939   -3.1033550262    4.5928543066
H        1.6976281783   -1.5300984686   -1.1707551016
H       -0.0000674105   -0.0338197998   -0.1028433173
H        3.4901124736   -2.5366854417    0.2264465778
H        0.1280051277    0.4242050102    2.3311985432
H        3.6698183960   -1.6047165236    4.9120904252
H        6.5320478238   -4.2451225215    2.5919910013
H        1.2142464454    0.0528593095    4.2291354963
19   
torsion grid (15,)
C        1.7391177958   -1.3076915442   -0.0993139229
C        0.7932637950   -0.4709489548    0.5010545047
C        2.7487269633   -1.8738252112    0.6763739802
C        0.8718685099   -0.2110664115    1.8697715884
C        4.2492002839   -2.1274928287    4.1556836579
C        5.7192588636   -3.6109687571    2.9172309918
C        2.8500955068   -1.6349161734    2.0607752985
C        1.8806625130   -0.7925014749    2.6457952932
C        3.9442076045   -2.2699970269    2.8186204871
N        4.8038920824   -3.1254641388    2.1348996830
O        1.9637250589   -0.5220478639    3.9955540621
S        5.6329786780   -3.0770028407    4.5763563552
H        1.6911214993   -1.5161045322   -1.1643334049
H        0.0020948275   -0.0158868363   -0.0886877404
H        3.4890749633   -2.5243748769    0.2245952774
H        0.1462729149    0.4484289929    2.3440689733
H        3.7429281906   -1.5241012021    4.8915853289
H        6.4913549874   -4.3001752450    2.5916675910
H        1.1295924166   -0.1172410799    4.2819359595
19   
torsion grid (30,)
C        1.7468395370   -1.3048754890   -0.1047794975
C        0.7981837022   -0.4668200447    0.4901953752
C        2.7561467138   -1.8677413312    0.6731142562
C        0.8752448393   -0.2023218993    1.8579993392
C        4.2769356485   -2.0748890828    4.1452237409
C        5.6946519942   -3.6316046000    2.9357460833
C        2.8520156941   -1.6264543507    2.0580106893
C        1.8781014649   -0.7876009423    2.6388290170
C        3.9450093200   -2.2593403688    2.8198550185
N        4.7751803357   -3.1554910237    2.1522783421
O        1.9625242431   -0.4981080995    3.9881458695
S        5.6488174201   -3.0369735636    4.5757779506
H        1.7018994126   -1.5154454784   -1.1695677478
H        0.0105165951   -0.0114181593   -0.1040324339
H        3.4978132097   -2.5188273048    0.2241906790
H        0.1557260515    0.4648519953    2.3295440702
H        3.7981456971   -1.4314452412    4.8655305959
H        6.4459263019   -4.3489219751    2.6224534445
H        1.0717152168   -0.3053511658    4.3203808450
19   
torsion grid (45,)
C        1.7385351595   -1.2808800172   -0.1048450367
C        0.7926265420   -0.4443122341    0.4974920766
C        2.7487679968   -1.8502492287    0.6667021976
C        0.8719175927   -0.1867756609    1.8665641710
C        4.3090685921   -2.0337679503    4.1189503313
C        5.6540989699   -3.6698984653    2.9312126163
C        2.8457319351   -1.6165441801    2.0531584535
C        1.8739126902   -0.7813628491    2.6407728286
C        3.9382164126   -2.2566226575    2.8101821952
N        4.7270753345   -3.1971958341    2.1542490867
O        1.9612610457   -0.4886027586    3.9936296513
S        5.6674964792   -3.0149782395    4.5488127255
H        1.6912707958   -1.4842694308   -1.1710401809
H        0.0066384884    0.0175159116   -0.0939918812
H        3.4877837246   -2.5006210666    0.2122176027
H        0.1591892506    0.4811543823    2.3458694113
H        3.8667905615   -1.3498559429    4.8254582808
H        6.3771563437   -4.4189518532    2.6259069469
H        1.0713512830   -0.5232759337    4.3776546123
19   
torsion grid (60,)
C        1.7356178486   -1.2693906699   -0.1071423625
C        0.7896521148   -0.4297811200    0.4912820280
C        2.7440930008   -1.8436082075    0.6632372976
C        0.8682221288   -0.1761025289    1.8613044697
C        4.3240008128   -1.9976630965    4.1053855825
C        5.6234694363   -3.6889875996    2.9455566101
C        2.8388961667   -1.6101333208    2.0500954643
C        1.8676236710   -0.7735689323    2.6354565919
C        3.9297906089   -2.2515554568    2.8092181161
N        4.6926406617   -3.2232303709    2.1686403708
O        1.9463954930   -0.4719991536    3.9918991581
S        5.6728787867   -2.9883212555    4.5432148758
H        1.6901792040   -1.4713364906   -1.1737781300
H        0.0069393684    0.0348403500   -0.1024606328
H        3.4813131891   -2.4956200826    0.2080570796
H        0.1597604859    0.4922853287    2.3447661391
H        3.9052411293   -1.2829217783    4.7957957979
H        6.3286212622   -4.4594152003    2.6518362935
H        1.1141081333   -0.7300800480    4.4178292814
19   
torsion grid (75,)
C        1.7354277703   -1.2555965740   -0.1111608419
C        0.7906173434   -0.4145768414    0.4871418329
C        2.7395454664   -1.8369897493    0.6599965381
C        0.8630134354   -0.1683023278    1.8593260711
C        4.3358759333   -1.9622659663    4.0908479977
C        5.5913151603   -3.7085375769    2.9607078733
C        2.8305486337   -1.6043186900    2.0470582485
C        1.8611657437   -0.7661226557    2.6329683213
C        3.9187251829   -2.2477106955    2.8086263526
N        4.6553029003   -3.2500849427    2.1852917160
O        1.9235101267   -0.4662709476    3.9942502920
S        5.6757927215   -2.9618204236    4.5359513999
H        1.6925316527   -1.4536509480   -1.1787331160
H        0.0108936076    0.0531672751   -0.1080809897
H        3.4754203827   -2.4906587823    0.2047428485
H        0.1534809891    0.4944147929    2.3478219128
H        3.9418897438   -1.2166007434    4.7633769788
H        6.2788078941   -4.4993854176    2.6796029651
H        1.2069575401   -0.9352853346    4.4503532782
19   
torsion grid (90,)
C        1.7379830565   -1.2398434824   -0.1187243263
C        0.7923429648   -0.4001579408    0.4798297276
C        2.7360638289   -1.8303122672    0.6541028763
C        0.8549496828   -0.1663136231    1.8550782916
C        4.3476469168   -1.9298338783    4.0746025277
C        5.5587588155   -3.7269522401    2.9813931767
C        2.8230397447   -1.6012150408    2.0415305295
C        1.8533708007   -0.7628378174    2.6275179144
C        3.9078143083   -2.2462223827    2.8069886078
N        4.6189767482   -3.2785445112    2.2042882492
O        1.8909523945   -0.4739987297    3.9932745476
S        5.6785026146   -2.9357602887    4.5323580796
H        1.6996605466   -1.4315045353   -1.1876785443
H        0.0148020784    0.0700575603   -0.1163131397
H        3.4712659992   -2.4845980800    0.1984685967
H        0.1390877987    0.4845252354    2.3493922205
H        3.9801740910   -1.1524877869    4.7265057614
H        6.2295493771   -4.5371119459    2.7154359893
H        1.3442367090   -1.1232832088    4.4647908067
19   
torsion grid (105,)
C        1.7453150562   -1.2245129510   -0.1273073220
C        0.7943555186   -0.3897698582    0.4696959886
C        2.7369940223   -1.8190838153    0.6510649528
C        0.8412065297   -0.1680347798    1.8477739841
C        4.3546328877   -1.8861907002    4.0646684792
C        5.5302971902   -3.7309737257    3.0122507058
C        2.8146806879   -1.5933384164    2.0389674090
C        1.8394921549   -0.7596530516    2.6233755791
C        3.8963618067   -2.2344725437    2.8116212737
N        4.5864237724   -3.2941835582    2.2331063160
O        1.8488445805   -0.4833173762    3.9904228533
S        5.6789520067   -2.8945614240    4.5365638129
H        1.7149783058   -1.4105932893   -1.1974791203
H        0.0184140122    0.0795810399   -0.1292290352
H        3.4757772278   -2.4714582445    0.1981877165
H        0.1133103169    0.4674755659    2.3438662839
H        4.0133738382   -1.0780910682    4.6938478253
H        6.1865931486   -4.5584419135    2.7639179228
H        1.5146786592   -1.2610209463    4.4673935394
19   
torsion grid (120,)
C        1.7580726539   -1.2029848474   -0.1447572975
C        0.7960437099   -0.3838267172    0.4567531803
C        2.7418313388   -1.8071541941    0.6361910904
C        0.8188742547   -0.1874548812    1.8390127214
C        4.3608068331   -1.8590028193    4.0398102294
C        5.4803243170   -3.7660009721    3.0401814491
C        2.8018774490   -1.5994284418    2.0271592369
C        1.8149354914   -0.7817575452    2.6156346739
C        3.8776060667   -2.2426667212    2.8058896278
N        4.5360239018   -3.3371200829    2.2568774086
O        1.7896569717   -0.5365358439    3.9840081108
S        5.6702452309   -2.8781883926    4.5302839194
H        1.7407184739   -1.3709756834   -1.2181076789
H        0.0231492207    0.0891176795   -0.1432905283
H        3.4886185025   -2.4501874587    0.1826613690
H        0.0739774716    0.4254537992    2.3379820957
H        4.0558700513   -1.0145067321    4.6402808513
H        6.1141719424   -4.6170946674    2.8144308806
H        1.6938960396   -1.3841674273    4.4504071165
19   
torsion grid (135,)
C        1.7688881523   -1.1754151446   -0.1477487239
C        0.7913991792   -0.3776002072    0.4589292928
C        2.7503659466   -1.7816323875    0.6338164249
C        0.7942837672   -0.2065525475    1.8439821884
C        4.3820288091   -1.8163409081    4.0208314097
C        5.4435812644   -3.7816645160    3.0733967479
C        2.7937192799   -1.5944116378    2.0279193135
C        1.7899265960   -0.8014619984    2.6224887275
C        3.8692711175   -2.2339359234    2.8092805119
N        4.4950195794   -3.3611457894    2.2902090373
O        1.7335959818   -0.5864152297    3.9890489758
S        5.6769839387   -2.8466736833    4.5276629784
H        1.7638035144   -1.3253022607   -1.2237595306
H        0.0184284643    0.0958127425   -0.1407247713
H        3.5091816837   -2.4094477349    0.1783815818
H        0.0321585299    0.3828808378    2.3450557686
H        4.1187721042   -0.9360276264    4.5900741411
H        6.0546973110   -4.6545218890    2.8689379686
H        1.8850408887   -1.4325281506    4.4444071442
19   
torsion grid (150,)
C        1.7847372540   -1.1399356282   -0.1699552032
C        0.7892154434   -0.3678893502    0.4422252582
C        2.7608045293   -1.7507191923    0.6141108731
C        0.7664855062   -0.2285222227    1.8297945025
C        4.4012175512   -1.7749648152    3.9791179471
C        5.3874925153   -3.8115238324    3.1043758180
C        2.7801987666   -1.5941146626    2.0121019437
C        1.7549137957   -0.8330930413    2.6122843041
C        3.8536629883   -2.2325020417    2.7970549906
N        4.4372825715   -3.3988745094    2.3183880921
O        1.6618160884   -0.6583464015    3.9767618717
S        5.6736229115   -2.8210289000    4.5115106540
H        1.7973157478   -1.2648421182   -1.2489628689
H        0.0203811969    0.1116121889   -0.1579568829
H        3.5353448382   -2.3582681938    0.1570309357
H       -0.0127575605    0.3384024781    2.3305027379
H        4.1848908550   -0.8557669133    4.5066527637
H        5.9693044551   -4.7105157358    2.9297684594
H        2.0426533745   -1.4374018963    4.4184780169
19   
torsion grid (165,)
C        1.7987013825   -1.0983362354   -0.1707149070
C        0.7831015681   -0.3573094792    0.4482256173
C        2.7738081509   -1.7117227691    0.6119608833
C        0.7377949241   -0.2522614859    1.8374735561
C        4.4329015963   -1.7186870733    3.9427550438
C        5.3383298826   -3.8273799776    3.1605070767
C        2.7687819865   -1.5907860563    2.0131767604
C        1.7193635930   -0.8696182150    2.6209494089
C        3.8453461943   -2.2228400172    2.7994398327
N        4.3829698861   -3.4295774124    2.3721928916
O        1.5912536810   -0.7425236202    3.9832757577
S        5.6850429073   -2.7735604070    4.5064854503
H        1.8282386519   -1.1943899132   -1.2522339890
H        0.0174469829    0.1289874955   -0.1506205988
H        3.5668293632   -2.2925231611    0.1510671646
H       -0.0567045274    0.2920227549    2.3393471829
H        4.2654533359   -0.7602788612    4.4171082598
H        5.8902931457   -4.7512423854    3.0226137653
H        2.1714603509   -1.3934208132    4.4159132824
19   
torsion grid (180,)
C        1.8141704518   -1.0648436303   -0.1730094396
C        0.7789189640   -0.3605157056    0.4566641934
C        2.7910123124   -1.6843430147    0.6029182851
C        0.7147698427   -0.2995336740    1.8475316679
C        4.4740280847   -1.6913465966    3.8906291187
C        5.3022765239   -3.8626360435    3.2021761135
C        2.7630729564   -1.6115886074    2.0065089226
C        1.6896109433   -0.9368455920    2.6248913331
C        3.8458920188   -2.2382180439    2.7900335067
N        4.3394038799   -3.4793550134    2.4145961390
O        1.5310788494   -0.8693993326    3.9862700392
S        5.7088014488   -2.7513504083    4.4835039960
H        1.8595041169   -1.1242331852   -1.2565661263
H        0.0160171922    0.1372089152   -0.1363407941
H        3.6029300120   -2.2320561078    0.1337402194
H       -0.0921958898    0.2204097187    2.3552720457
H        4.3494724766   -0.7014301588    4.3116894764
H        5.8260705622   -4.8074002313    3.1006754981
H        2.2638365466   -1.3446628351    4.4150477476
