29
0 1 C10ClFH12N4O
C                     3.646464573447     3.691450668975    -0.028611653970
C                     5.448943008874     4.588312117397     1.038589160387
C                     4.068341076746     2.403221714945     0.316456332981
C                     5.862374156105     3.284803102617     1.375484873169
C                     3.321912839872     1.166204753330    -0.136034543068
C                     0.411936226902    -0.667311872875     0.784009714445
C                    -0.357715354036     0.509745918746    -0.792664921028
C                     1.079870449220     0.160644987604    -0.345752689344
C                    -2.091683554961    -0.514592245352     0.720310531596
C                    -3.266623632303    -0.608411374808    -0.242832600882
N                     4.339709458170     4.783642760831     0.330107189394
N                     5.196224615681     2.206212129808     1.019925985059
N                    -0.841436977866    -0.650809989570    -0.006208603375
N                     1.957570787727     1.253823217069    -0.001706114953
O                     3.904607625728     0.203331374226    -0.615990256111
F                    -4.464812242544    -0.427407172457     0.465714887541
Cl                    7.327828579734     3.076036628637     2.308986927374
H                     2.752134147873     3.851624170268    -0.625886785427
H                     6.024073836224     5.458553650202     1.344432802073
H                     0.813297312926    -1.661292225210     1.002458554433
H                     0.340797061185    -0.084235640210     1.717998897440
H                    -0.689693560586     1.476953904801    -0.373520321538
H                    -0.583398268748     0.485076693205    -1.863173103535
H                     1.603131686220    -0.473715740043    -1.058564499401
H                    -2.162682181795    -1.328101551960     1.450371682476
H                    -2.153714755366     0.439327301886     1.277502653680
H                    -3.301737889922    -1.589244536307    -0.724685805817
H                    -3.221444572305     0.171398085488    -1.010718888980
H                     1.583778109262     1.993804794908     0.580275086018
