62
0 1 C26H30N2O4
C                     1.766165522632     5.712982444683     2.579196934592
C                     1.212594295612    -1.840775191250     4.242000712171
C                     3.115116116931     6.023707883724     2.752847055411
C                     0.029368959476    -1.250978556180     3.775179860135
C                     2.296356964927     3.389192520397     3.019824324341
C                     0.258279738754     0.519921462038     5.430087133665
C                     1.354997459952     4.379332861261     2.696920760814
C                     1.912773142788    -1.257578258555     5.294800974176
C                     1.429363378963    -0.077543538202     5.882623513662
C                     4.074073992143     5.049278427946     3.056480704896
C                     3.644730475603     3.706144782384     3.216145661598
C                    -0.447294281755    -0.073178403017     4.370320137263
C                    -1.882684676933     2.892228242162     2.342665675391
C                    -2.206128085883     4.215741033939     2.423953189984
C                    -0.034364265343     3.974617569612     2.520433329378
C                     5.483789243528    -2.792357516210     5.754664839258
C                     2.336431962558     0.357244735576     7.014291246457
C                     3.626255740281    -0.463351756746     6.775981454401
C                     3.178695478185    -1.725071668367     5.992337057443
C                     5.529342225434     5.435843354026     3.163383957848
C                    -3.476262735378     4.988812311475     2.426579835154
C                     4.236437514489     1.332272240979     3.190077540225
C                     5.094115480712     2.776883877143     4.924186571081
C                    -2.772406027212     1.683358062920     2.238707664041
C                     4.242411787612    -2.274445096619     5.041072005972
C                    -2.027282333874     0.411051521983     2.628972835308
N                    -0.497528608688     2.762140534378     2.395799327219
N                     4.600103598554     2.700114625744     3.546533981678
O                     5.586524056465    -2.955560424740     6.947446068048
O                    -1.021013407185     4.924602155111     2.533885887215
O                     6.535448673552    -3.103907736143     4.934390637025
O                    -1.608373816213     0.546519284507     3.991366647467
H                     1.046563358233     6.488247151174     2.335242409231
H                     1.563251367594    -2.758944610948     3.774810584402
H                     3.442173943816     7.053398490096     2.624367638881
H                    -0.519834999774    -1.716801745128     2.963664752554
H                     1.940274455967     2.372240929311     3.135686637430
H                    -0.122680899034     1.443171686765     5.858141955527
H                     2.516247738729     1.437386859084     7.025617332132
H                     1.880740479861     0.099147891049     7.979121835100
H                     4.313046239981     0.117331473071     6.149994606856
H                     4.156463682322    -0.717869363039     7.694896992799
H                     2.929735449712    -2.519645506222     6.707496271148
H                     5.805899670960     5.720742399844     4.186214697161
H                     6.173710472026     4.603230427315     2.868602141322
H                     5.746024835937     6.295158314075     2.522126537699
H                    -3.565837757769     5.605505484258     3.327869401433
H                    -3.545981928136     5.654184215404     1.558239985324
H                    -4.325153460013     4.301423936779     2.395871925041
H                     5.127746825034     0.702616576081     3.290149633981
H                     3.906776326232     1.294321122542     2.148762715029
H                     3.443020801982     0.899977122128     3.821596829673
H                     5.944280887411     2.097345094935     5.045271566900
H                     4.318314061527     2.499531924953     5.657564271336
H                     5.433016801582     3.785995152216     5.158868292429
H                    -3.651384095845     1.806151115772     2.880416430016
H                    -3.141770397317     1.555326981198     1.212699083284
H                     3.836569279712    -3.109193105205     4.453788777440
H                     4.530254529833    -1.501418963191     4.317201238896
H                    -2.681267656588    -0.464187110599     2.522850991884
H                    -1.152711602308     0.284744504905     1.984942595367
H                     6.297634260159    -2.918795896238     4.009863989240
