63
0 1 C28F3H29O3
C                    -0.987103022428     4.333241182246    -0.504923823164
C                    -0.794726336144     5.950638787552     1.271113484457
C                    -2.258989084445     4.813533822419    -0.821847155034
C                    -2.063582990924     6.437823505802     0.965112343757
C                     2.602111159790     5.431801651953     4.201516491220
C                     1.261917723354     3.268859744691     3.056367196384
C                     1.658385909885     3.196725043179     4.416511931314
C                    -0.236290510029     4.896952190762     0.534453530802
C                    -2.796353126948     5.870703511236    -0.085039587396
C                     2.227630482158     5.510519593138     2.859953115529
C                     1.576407707904     4.394722493445     2.270909150372
C                     2.331951980043     4.305685305604     4.973893953931
C                    -0.838523365187     2.128576652358     2.281167525773
C                     0.491628632046     2.159883067188     2.431983501782
C                     1.445642886129     1.999940916880     5.264827641407
C                    -1.306493256742     0.852860093475     1.621994377231
C                     1.145905150396     0.913897303283     1.857291944434
C                     2.084844664486     2.074380412691     6.644641062449
C                     0.003277025129     0.263556069470     1.038182180777
C                     1.066370953363     3.678596552353     9.106248645333
C                     2.550226498473     3.651851973168     8.638505670257
C                     0.643137502111     3.972953111489     7.638815405858
C                     2.053217610600     3.490010976274     7.189683021770
C                     4.032120664127     6.861625896641     1.741880410952
C                     2.130491416593     8.059275804482     2.919856171573
C                     1.156093235188     4.339430264274     0.807678228839
C                     2.539638673216     6.809146725895     2.119451996796
C                    -4.170913501072     6.405373618395    -0.381665242536
O                     0.846587216236     0.988656850763     4.913355054426
O                     2.742091967821     4.361612055294     6.276190459677
O                     2.148252397694     4.981524329468    -0.019384427990
F                    -4.748092170142     5.795869921281    -1.444125200597
F                    -5.013486289028     6.245557311719     0.674440122741
F                    -4.146686270796     7.738117308643    -0.650842227046
H                    -0.584271125390     3.487014277481    -1.057897889577
H                    -0.248469968042     6.377062881046     2.104844816619
H                    -2.831909771424     4.362655608628    -1.625364786263
H                    -2.488539427300     7.252092869637     1.545481051807
H                     3.099660448723     6.262552615730     4.690031079426
H                    -1.517413672473     2.896685925149     2.642108045572
H                    -1.752175183162     0.183211987883     2.370901624125
H                    -2.071180446347     1.024603620554     0.855086950554
H                     2.026263413738     1.148317822761     1.246313054718
H                     1.482138788403     0.269634691046     2.676436623204
H                     1.569729226917     1.372841590668     7.304772318082
H                     3.129517261962     1.747103284186     6.553238150846
H                     0.029513922281    -0.828961524581     1.075001182781
H                     0.094355328848     0.557064018864    -0.013948889019
H                     0.800090938910     4.427282227457     9.855382004357
H                     0.720160441064     2.700408536059     9.450066445831
H                     3.036374833739     4.623060613021     8.762716113685
H                     3.204247334271     2.866274745864     9.027455904949
H                    -0.222480524736     3.440326813720     7.236017788920
H                     0.529835327200     5.043824738196     7.451186883808
H                     4.664482144398     6.852289739532     2.636891363712
H                     4.250629692731     7.778345762373     1.182515688329
H                     4.299385503829     6.005418233423     1.118386982922
H                     2.749373800789     8.208528802681     3.810074451003
H                     1.085901047964     8.008645113235     3.246242774208
H                     2.244396943484     8.949653223375     2.292338170935
H                     1.122028754027     3.285639678869     0.522102672291
H                     1.976931286323     6.819328434102     1.188859046681
H                     1.803969487470     4.990214800420    -0.927124484547
