50
0 1 C22F4H19NO4
C                     9.325331280865    -0.888893304363     0.074356817164
C                     8.754739735628    -0.441259888810     1.286076202927
C                     8.536679348756    -1.159489399274    -1.041202512625
C                     1.254909041079     1.639644993133     0.794974620799
C                     7.377393015944    -0.250773746320     1.417126399388
C                     0.638534501769     2.683169948117     1.488839706504
C                     6.019689597742    -1.139210100870    -1.817665625577
C                     7.145944128136    -0.975046709244    -0.933933714639
C                     0.495179866222     0.671080043248     0.130602560167
C                    -0.920316027053     0.719913437017     0.130695473102
C                     6.608375897314    -0.526214114629     0.291275789960
C                    -1.530289199605     1.803702395856     0.787005720017
C                    -0.737933751994     2.739404255601     1.462726732071
C                     4.914909105016    -0.788754756533    -1.100632500117
C                     3.494710625541    -0.777118520095    -1.484648739415
C                    -0.957499896744    -1.708774523725    -0.362214080008
C                     1.190360396512    -0.359889303978    -0.746296926841
C                    -1.700145664876    -0.377086531429    -0.607134565450
C                     0.512996638476    -1.772774856033    -0.787474348771
C                    -1.806596831153    -0.031294116752    -2.109820151338
C                    -3.129090660461    -0.614076095137    -0.068557881618
C                     1.226771868563    -2.774439263642     0.158030947436
N                     2.625897611908    -0.402571012673    -0.504849791273
O                     3.137843447321    -1.088683525239    -2.630839698422
O                     5.242566759561    -0.407913135991     0.194078890618
O                    -2.887314731217     1.989895678184     0.768917067095
O                     0.566816791899    -2.299868997655    -2.101867480420
F                    -1.403076400480     3.757855704238     2.094987329998
F                     0.498300090851    -3.896601148072     0.339963517118
F                     2.434028851078    -3.171016132588    -0.304454789638
F                     1.430032232499    -2.225714950615     1.392610058435
H                    10.401699407758    -1.024108294810     0.016727614427
H                     9.401026196691    -0.241192352616     2.136044184192
H                     8.983068155385    -1.504595894451    -1.969535119328
H                     2.336873396895     1.619039732151     0.747246339550
H                     6.927831511473     0.091150922708     2.344156415220
H                     1.206305246718     3.444436160517     2.014230082720
H                     6.009686730266    -1.474283517843    -2.845910165261
H                    -1.033496967465    -1.922175097791     0.707719892308
H                    -1.467985361809    -2.517185800587    -0.890564969880
H                     1.089311139995    -0.007694120224    -1.775923248765
H                    -2.326156801656    -0.834568511677    -2.642302772202
H                    -0.835088719334     0.097914426597    -2.589817664088
H                    -2.376867234617     0.893971579924    -2.237751366736
H                    -3.515596170525    -1.543307758045    -0.500655135818
H                    -3.809106813431     0.192723191522    -0.335936245707
H                    -3.138306186333    -0.718084881041     1.020696355951
H                     2.966745654025    -0.388078685118     0.448881903347
H                    -3.085155346830     2.791385819848     1.283939459435
H                     1.438304780457    -2.071368436551    -2.491613089627
