
  -OEChem-05262117483D

 50 53  0     1  0  0  0  0  0999 V2000
    9.6117   -1.3518    0.6182 C   0  0  0  0  0  0  0  0  0  0  0  0
    9.6922   -2.1916   -0.5157 C   0  0  0  0  0  0  0  0  0  0  0  0
    8.4014   -0.7965    1.0235 C   0  0  0  0  0  0  0  0  0  0  0  0
    1.5472    1.2341    0.8008 C   0  0  0  0  0  0  0  0  0  0  0  0
    8.5644   -2.5001   -1.2773 C   0  0  0  0  0  0  0  0  0  0  0  0
    0.9271    2.3369    1.3919 C   0  0  0  0  0  0  0  0  0  0  0  0
    5.8563   -0.7409    0.3408 C   0  0  0  0  0  0  0  0  0  0  0  0
    7.2496   -1.0952    0.2715 C   0  0  0  0  0  0  0  0  0  0  0  0
    0.7978    0.2566    0.1382 C   0  0  0  0  0  0  0  0  0  0  0  0
   -0.6112    0.3555    0.0360 C   0  0  0  0  0  0  0  0  0  0  0  0
    7.3633   -1.9349   -0.8571 C   0  0  0  0  0  0  0  0  0  0  0  0
   -1.2217    1.4954    0.5889 C   0  0  0  0  0  0  0  0  0  0  0  0
   -0.4413    2.4397    1.2667 C   0  0  0  0  0  0  0  0  0  0  0  0
    5.2445   -1.3698   -0.7109 C   0  0  0  0  0  0  0  0  0  0  0  0
    3.8455   -1.3855   -1.1828 C   0  0  0  0  0  0  0  0  0  0  0  0
   -0.7088   -2.0936   -0.3188 C   0  0  0  0  0  0  0  0  0  0  0  0
    1.5136   -0.8476   -0.6270 C   0  0  2  0  0  0  0  0  0  0  0  0
   -1.3800   -0.7543   -0.6937 C   0  0  0  0  0  0  0  0  0  0  0  0
    0.7829   -2.2352   -0.6392 C   0  0  1  0  0  0  0  0  0  0  0  0
   -1.3651   -0.4950   -2.2174 C   0  0  0  0  0  0  0  0  0  0  0  0
   -2.8520   -0.9079   -0.2496 C   0  0  0  0  0  0  0  0  0  0  0  0
    1.3915   -3.2074    0.4056 C   0  0  0  0  0  0  0  0  0  0  0  0
    2.9274   -0.9216   -0.2770 N   0  0  0  0  0  0  0  0  0  0  0  0
    3.5368   -1.7667   -2.3167 O   0  0  0  0  0  0  0  0  0  0  0  0
    6.1430   -2.0993   -1.4552 O   0  0  0  0  0  0  0  0  0  0  0  0
   -2.5660    1.7271    0.4671 O   0  0  0  0  0  0  0  0  0  0  0  0
    0.9003   -2.8392   -1.9149 O   0  0  0  0  0  0  0  0  0  0  0  0
   -1.1075    3.5147    1.7950 F   0  0  0  0  0  0  0  0  0  0  0  0
    0.6096   -4.2889    0.6011 F   0  0  0  0  0  0  0  0  0  0  0  0
    2.6108   -3.6713    0.0500 F   0  0  0  0  0  0  0  0  0  0  0  0
    1.5368   -2.5946    1.6208 F   0  0  0  0  0  0  0  0  0  0  0  0
   10.5158   -1.1387    1.1816 H   0  0  0  0  0  0  0  0  0  0  0  0
   10.6548   -2.6062   -0.8014 H   0  0  0  0  0  0  0  0  0  0  0  0
    8.3481   -0.1525    1.8970 H   0  0  0  0  0  0  0  0  0  0  0  0
    2.6280    1.1688    0.8262 H   0  0  0  0  0  0  0  0  0  0  0  0
    8.6129   -3.1424   -2.1509 H   0  0  0  0  0  0  0  0  0  0  0  0
    1.4867    3.1070    1.9132 H   0  0  0  0  0  0  0  0  0  0  0  0
    5.3845   -0.0835    1.0598 H   0  0  0  0  0  0  0  0  0  0  0  0
   -0.8636   -2.2370    0.7544 H   0  0  0  0  0  0  0  0  0  0  0  0
   -1.2144   -2.9150   -0.8316 H   0  0  0  0  0  0  0  0  0  0  0  0
    1.5023   -0.5521   -1.6787 H   0  0  0  0  0  0  0  0  0  0  0  0
   -1.8725   -1.3119   -2.7405 H   0  0  0  0  0  0  0  0  0  0  0  0
   -0.3577   -0.4241   -2.6308 H   0  0  0  0  0  0  0  0  0  0  0  0
   -1.8919    0.4383   -2.4394 H   0  0  0  0  0  0  0  0  0  0  0  0
   -3.2440   -1.8454   -0.6580 H   0  0  0  0  0  0  0  0  0  0  0  0
   -3.4779   -0.0934   -0.6097 H   0  0  0  0  0  0  0  0  0  0  0  0
   -2.9435   -0.9493    0.8401 H   0  0  0  0  0  0  0  0  0  0  0  0
    3.1658   -0.9759    0.7054 H   0  0  0  0  0  0  0  0  0  0  0  0
   -2.7673    2.5632    0.9224 H   0  0  0  0  0  0  0  0  0  0  0  0
    1.8048   -2.6679   -2.2558 H   0  0  0  0  0  0  0  0  0  0  0  0
  1  2  1  0  0  0  0
  1  3  2  0  0  0  0
  1 32  1  0  0  0  0
  2  5  2  0  0  0  0
  2 33  1  0  0  0  0
  3  8  1  0  0  0  0
  3 34  1  0  0  0  0
  4  6  2  0  0  0  0
  4  9  1  0  0  0  0
  4 35  1  0  0  0  0
  5 11  1  0  0  0  0
  5 36  1  0  0  0  0
  6 13  1  0  0  0  0
  6 37  1  0  0  0  0
  7  8  1  0  0  0  0
  7 14  2  0  0  0  0
  7 38  1  0  0  0  0
  8 11  2  0  0  0  0
  9 10  2  0  0  0  0
  9 17  1  0  0  0  0
 10 12  1  0  0  0  0
 10 18  1  0  0  0  0
 11 25  1  0  0  0  0
 12 13  2  0  0  0  0
 12 26  1  0  0  0  0
 13 28  1  0  0  0  0
 14 15  1  0  0  0  0
 14 25  1  0  0  0  0
 15 23  1  0  0  0  0
 15 24  2  0  0  0  0
 16 18  1  0  0  0  0
 16 19  1  0  0  0  0
 16 39  1  0  0  0  0
 16 40  1  0  0  0  0
 17 19  1  0  0  0  0
 17 23  1  0  0  0  0
 17 41  1  0  0  0  0
 18 20  1  0  0  0  0
 18 21  1  0  0  0  0
 19 22  1  0  0  0  0
 19 27  1  0  0  0  0
 20 42  1  0  0  0  0
 20 43  1  0  0  0  0
 20 44  1  0  0  0  0
 21 45  1  0  0  0  0
 21 46  1  0  0  0  0
 21 47  1  0  0  0  0
 22 29  1  0  0  0  0
 22 30  1  0  0  0  0
 22 31  1  0  0  0  0
 23 48  1  0  0  0  0
 26 49  1  0  0  0  0
 27 50  1  0  0  0  0
M  END
$$$$
