50
0 1 C22F4H19NO4
C                     3.449592368006     3.412262969290    -7.823565219758
C                     2.129527462095     2.911708863985    -7.825968716190
C                     4.198899535285     3.473763733043    -6.650660035171
C                     2.670385381256    -0.984731038499    -0.145538750983
C                     1.520343123427     2.457965605399    -6.653591999716
C                     2.840363398532    -2.366433204132    -0.118740306850
C                     4.023850523926     2.918251949691    -4.080905474137
C                     3.607011904092     3.022331423087    -5.457013686310
C                     1.388628333306    -0.417597639874    -0.181104460265
C                     0.227491573625    -1.214604766838    -0.192446378923
C                     2.285776823323     2.528335543248    -5.494387514743
C                     0.409960411492    -2.612978189527    -0.146610673509
C                     1.698455081274    -3.146486160030    -0.118687479089
C                     2.969753809505     2.390868046504    -3.397855908059
C                     2.832272464193     2.064238773783    -1.962849362154
C                    -1.160334982123     0.916076354493    -0.390667541743
C                     1.337449747850     1.100265785602    -0.250780107030
C                    -1.187808989758    -0.620842943427    -0.197931501799
C                     0.003682650044     1.636198424918     0.291377492528
C                    -1.897085911924    -0.975101913011     1.132573668304
C                    -2.021696831373    -1.175841387842    -1.378079344365
C                    -0.126323601491     3.165285725491     0.081188902420
N                     1.605272827175     1.573341215929    -1.604317990400
O                     3.765856662576     2.238688513117    -1.178381390827
O                     1.890240263855     2.140361936849    -4.236704659021
O                    -0.664487881648    -3.468493223277    -0.116091928372
O                     0.065605210369     1.412090336293     1.694701389189
F                     1.792450707205    -4.514361676581    -0.076138286952
F                    -1.147602735013     3.639113793981     0.855907127605
F                     0.985288214475     3.830665111986     0.438564900403
F                    -0.424835789263     3.510061643664    -1.193454146406
H                     3.885264436518     3.755548174094    -8.757748113362
H                     1.574508575564     2.879227723373    -8.759321336043
H                     5.213987914578     3.860927237926    -6.657364080709
H                     3.537204090027    -0.330676949205    -0.141221389917
H                     0.505500753327     2.072537436636    -6.643128779816
H                     3.820000175026    -2.832751761160    -0.088385537856
H                     4.971213909489     3.193537660669    -3.637902729600
H                    -1.112289305674     1.144601749884    -1.460061721553
H                    -2.113509950566     1.329826357452    -0.043605366349
H                     2.134712112859     1.510887959655     0.368896508657
H                    -2.888256925949    -0.507450131044     1.164342943858
H                    -1.316299868267    -0.630129389629     1.990405492801
H                    -2.031565679429    -2.054065744082     1.223087435191
H                    -2.985532656820    -0.655660697764    -1.422746737625
H                    -2.213949219222    -2.242757790615    -1.272070601986
H                    -1.505538343188    -1.012371657579    -2.330630026578
H                     0.963011298560     1.332799195645    -2.349313575227
H                    -0.320447424546    -4.377733015675    -0.074191883211
H                    -0.780225774591     1.684679931717     2.087040151940
