30
1 1 C10ClFH13N4O
C                     0.587695838587     0.362908249381    -5.158333834030
C                     2.048445326469    -0.416337578976    -6.723941061524
C                     1.034310143501    -0.602403239636    -4.254576788503
C                     2.485013434877    -1.393918872430    -5.800183974990
C                     0.444021431834    -0.757533354021    -2.880055605244
C                    -0.027100170395    -0.732387503858     0.048033367787
C                    -0.240954725590     1.409964091677     0.111020796704
C                    -0.541993708084     0.327343381491    -0.951081760361
C                     0.992025137794     0.412848438453     2.184053230994
C                     0.880208786655    -0.757415146416     3.148275318763
N                     1.098144531127     0.451940357121    -6.396806186437
N                     1.984757743184    -1.492767026924    -4.584704901564
N                     0.204524494208     0.416372409420    -2.183482920839
N                    -0.107599385573     0.322624120917     1.173594496114
O                     0.207612460194    -1.844047691914    -2.367416515934
F                    -0.431227032860    -0.759620714696     3.644320738981
Cl                    3.725838181072    -2.514650496695    -6.272344050452
H                    -0.214624349283     1.057858529376    -4.916254151775
H                     2.477473807939    -0.355926713897    -7.720923938894
H                    -0.638466370204    -1.610599323890     0.239345418316
H                     1.015791613473    -1.003653875791    -0.102718302607
H                     0.729938625189     1.887673452753    -0.025468457758
H                    -1.008681318590     2.144443623553     0.353404470099
H                    -1.617876129674     0.213418206251    -1.124944875007
H                     0.870243734182     1.363515064584     2.709545579659
H                     1.948455133470     0.408809620396     1.656511066778
H                     1.573202100532    -0.635182502813     3.983274596564
H                     1.053061257497    -1.720925829510     2.661206622617
H                     0.269449256768     1.309499538935    -2.658249278732
H                    -0.984999622392     0.212833343722     1.694596500974
