
  -OEChem-05262117483D

 63 67  0     1  0  0  0  0  0999 V2000
    4.7324    1.2500    1.1726 C   0  0  0  0  0  0  0  0  0  0  0  0
    3.3346    0.8502    3.0980 C   0  0  0  0  0  0  0  0  0  0  0  0
    5.6476    0.2959    1.6256 C   0  0  0  0  0  0  0  0  0  0  0  0
    4.2369   -0.1059    3.5556 C   0  0  0  0  0  0  0  0  0  0  0  0
    2.4034    5.1283    4.1385 C   0  0  0  0  0  0  0  0  0  0  0  0
    0.6625    3.2718    2.9551 C   0  0  0  0  0  0  0  0  0  0  0  0
    0.2336    4.0395    4.0768 C   0  0  0  0  0  0  0  0  0  0  0  0
    3.5714    1.5378    1.8982 C   0  0  0  0  0  0  0  0  0  0  0  0
    5.3970   -0.3820    2.8192 C   0  0  0  0  0  0  0  0  0  0  0  0
    2.8535    4.3566    3.0723 C   0  0  0  0  0  0  0  0  0  0  0  0
    1.9773    3.4123    2.4679 C   0  0  0  0  0  0  0  0  0  0  0  0
    1.1161    4.9796    4.6466 C   0  0  0  0  0  0  0  0  0  0  0  0
   -1.3272    2.8221    1.5045 C   0  0  0  0  0  0  0  0  0  0  0  0
   -0.3498    2.3910    2.3087 C   0  0  0  0  0  0  0  0  0  0  0  0
   -1.1099    3.9044    4.7023 C   0  0  0  0  0  0  0  0  0  0  0  0
   -2.2706    1.7102    1.1096 C   0  0  0  0  0  0  0  0  0  0  0  0
   -0.4772    0.9067    2.5933 C   0  0  0  0  0  0  0  0  0  0  0  0
   -1.5070    5.0962    5.5581 C   0  0  0  0  0  0  0  0  0  0  0  0
   -1.4945    0.4351    1.5271 C   0  0  0  0  0  0  0  0  0  0  0  0
   -0.8533    5.3467    8.5881 C   0  0  0  0  0  0  0  0  0  0  0  0
   -0.1026    4.3979    7.6110 C   0  0  0  0  0  0  0  0  0  0  0  0
   -0.6638    6.5002    7.5611 C   0  0  0  0  0  0  0  0  0  0  0  0
   -0.3514    5.4432    6.4845 C   0  0  0  0  0  0  0  0  0  0  0  0
    5.2823    4.0829    3.7201 C   0  0  0  0  0  0  0  0  0  0  0  0
    4.5745    6.0355    2.2508 C   0  0  0  0  0  0  0  0  0  0  0  0
    2.5692    2.5519    1.3502 C   0  0  2  0  0  0  0  0  0  0  0  0
    4.3023    4.5696    2.6355 C   0  0  0  0  0  0  0  0  0  0  0  0
    6.3666   -1.4036    3.3496 C   0  0  0  0  0  0  0  0  0  0  0  0
   -1.8358    2.9220    4.6133 O   0  0  0  0  0  0  0  0  0  0  0  0
    0.8019    5.7907    5.7012 O   0  0  0  0  0  0  0  0  0  0  0  0
    1.5647    1.8711    0.5949 O   0  0  0  0  0  0  0  0  0  0  0  0
    7.4102   -1.6132    2.5126 F   0  0  0  0  0  0  0  0  0  0  0  0
    6.8879   -1.0276    4.5485 F   0  0  0  0  0  0  0  0  0  0  0  0
    5.7697   -2.6074    3.5536 F   0  0  0  0  0  0  0  0  0  0  0  0
    4.9360    1.7884    0.2489 H   0  0  0  0  0  0  0  0  0  0  0  0
    2.4496    1.0797    3.6823 H   0  0  0  0  0  0  0  0  0  0  0  0
    6.5488    0.0868    1.0589 H   0  0  0  0  0  0  0  0  0  0  0  0
    4.0469   -0.6320    4.4870 H   0  0  0  0  0  0  0  0  0  0  0  0
    3.0528    5.8526    4.6191 H   0  0  0  0  0  0  0  0  0  0  0  0
   -1.4679    3.8589    1.2082 H   0  0  0  0  0  0  0  0  0  0  0  0
   -3.2168    1.8065    1.6618 H   0  0  0  0  0  0  0  0  0  0  0  0
   -2.5223    1.7163    0.0423 H   0  0  0  0  0  0  0  0  0  0  0  0
    0.4774    0.3783    2.5142 H   0  0  0  0  0  0  0  0  0  0  0  0
   -0.8578    0.7698    3.6128 H   0  0  0  0  0  0  0  0  0  0  0  0
   -1.7211    5.9593    4.9143 H   0  0  0  0  0  0  0  0  0  0  0  0
   -2.4072    4.8423    6.1213 H   0  0  0  0  0  0  0  0  0  0  0  0
   -2.1500   -0.3610    1.8923 H   0  0  0  0  0  0  0  0  0  0  0  0
   -0.9498    0.0469    0.6603 H   0  0  0  0  0  0  0  0  0  0  0  0
   -0.4089    5.4899    9.5753 H   0  0  0  0  0  0  0  0  0  0  0  0
   -1.9028    5.0677    8.7130 H   0  0  0  0  0  0  0  0  0  0  0  0
    0.9644    4.3337    7.8397 H   0  0  0  0  0  0  0  0  0  0  0  0
   -0.5044    3.3927    7.4588 H   0  0  0  0  0  0  0  0  0  0  0  0
   -1.5068    7.1694    7.3667 H   0  0  0  0  0  0  0  0  0  0  0  0
    0.2293    7.0939    7.7734 H   0  0  0  0  0  0  0  0  0  0  0  0
    5.1745    4.6644    4.6415 H   0  0  0  0  0  0  0  0  0  0  0  0
    6.3157    4.1893    3.3727 H   0  0  0  0  0  0  0  0  0  0  0  0
    5.1115    3.0304    3.9631 H   0  0  0  0  0  0  0  0  0  0  0  0
    4.4761    6.7083    3.1082 H   0  0  0  0  0  0  0  0  0  0  0  0
    3.8788    6.3761    1.4770 H   0  0  0  0  0  0  0  0  0  0  0  0
    5.5946    6.1395    1.8651 H   0  0  0  0  0  0  0  0  0  0  0  0
    3.1083    3.2143    0.6612 H   0  0  0  0  0  0  0  0  0  0  0  0
    4.5066    3.9758    1.7459 H   0  0  0  0  0  0  0  0  0  0  0  0
    2.0201    1.2071    0.0521 H   0  0  0  0  0  0  0  0  0  0  0  0
  1  3  1  0  0  0  0
  1  8  2  0  0  0  0
  1 35  1  0  0  0  0
  2  4  2  0  0  0  0
  2  8  1  0  0  0  0
  2 36  1  0  0  0  0
  3  9  2  0  0  0  0
  3 37  1  0  0  0  0
  4  9  1  0  0  0  0
  4 38  1  0  0  0  0
  5 10  1  0  0  0  0
  5 12  2  0  0  0  0
  5 39  1  0  0  0  0
  6  7  2  0  0  0  0
  6 11  1  0  0  0  0
  6 14  1  0  0  0  0
  7 12  1  0  0  0  0
  7 15  1  0  0  0  0
  8 26  1  0  0  0  0
  9 28  1  0  0  0  0
 10 11  2  0  0  0  0
 10 27  1  0  0  0  0
 11 26  1  0  0  0  0
 12 30  1  0  0  0  0
 13 14  2  0  0  0  0
 13 16  1  0  0  0  0
 13 40  1  0  0  0  0
 14 17  1  0  0  0  0
 15 18  1  0  0  0  0
 15 29  2  0  0  0  0
 16 19  1  0  0  0  0
 16 41  1  0  0  0  0
 16 42  1  0  0  0  0
 17 19  1  0  0  0  0
 17 43  1  0  0  0  0
 17 44  1  0  0  0  0
 18 23  1  0  0  0  0
 18 45  1  0  0  0  0
 18 46  1  0  0  0  0
 19 47  1  0  0  0  0
 19 48  1  0  0  0  0
 20 21  1  0  0  0  0
 20 22  1  0  0  0  0
 20 49  1  0  0  0  0
 20 50  1  0  0  0  0
 21 23  1  0  0  0  0
 21 51  1  0  0  0  0
 21 52  1  0  0  0  0
 22 23  1  0  0  0  0
 22 53  1  0  0  0  0
 22 54  1  0  0  0  0
 23 30  1  0  0  0  0
 24 27  1  0  0  0  0
 24 55  1  0  0  0  0
 24 56  1  0  0  0  0
 24 57  1  0  0  0  0
 25 27  1  0  0  0  0
 25 58  1  0  0  0  0
 25 59  1  0  0  0  0
 25 60  1  0  0  0  0
 26 31  1  0  0  0  0
 26 61  1  0  0  0  0
 27 62  1  0  0  0  0
 28 32  1  0  0  0  0
 28 33  1  0  0  0  0
 28 34  1  0  0  0  0
 31 63  1  0  0  0  0
M  END
$$$$
