34
0 1 C15H13N5S
C                    -2.532599441541    -4.086543502768   -12.515628800057
C                    -4.281200815827     0.225641051502    -9.334474933888
C                    -3.710865455861     1.397225124016    -8.807770092064
C                    -3.707320550645    -1.023351111014    -9.092978727717
C                    -2.548191071250     1.341830112755    -8.032021934566
C                    -1.640326028328    -4.840094740069   -10.263756635793
C                    -1.657545179591    -4.051700104503   -11.403737467396
C                    -0.593185898686    -4.359416313834    -9.432568846812
C                    -2.544632862519    -1.098850056643    -8.314500862496
C                    -1.972646871830     0.092063255969    -7.799349737216
C                     0.036322157521    -3.309328937009   -10.116602952382
C                    -0.813928679547    -2.025823402887    -7.294208676223
C                    -0.327632555670    -4.887296421201    -8.097178249199
C                     1.237894279222    -2.498428569302    -9.757192813076
C                    -0.267323853544    -2.141289113532   -12.316741127956
N                    -3.250847245662    -4.101159525496   -13.437284481553
N                    -1.872292869499    -2.272172841427    -7.995180659493
N                     0.005525604933    -4.331356559944    -6.978715980235
N                    -0.622530060918    -3.122668459997   -11.300624197502
N                     0.136182358138    -2.943354952376    -6.883731777190
S                    -0.504298097572    -0.298524850982    -6.907058818821
H                    -5.181932131900     0.293263776446    -9.938332744090
H                    -4.174102370569     2.359809911037    -9.005720776537
H                    -4.137438740286    -1.935914093961    -9.494928851477
H                    -2.107608285849     2.249649535310    -7.629880111070
H                    -2.343709027639    -5.629236378061   -10.033680687674
H                    -0.438234990163    -5.967361406547    -7.991121563365
H                     1.937771770559    -2.430121348345   -10.596940609660
H                     0.964231618250    -1.477001006865    -9.466299549447
H                     1.758040181190    -2.953393978531    -8.915303759119
H                    -0.167143691218    -1.152357238789   -11.863527454048
H                     0.672837160301    -2.410587814092   -12.808706650090
H                    -1.057305285186    -2.104087299442   -13.066705729127
H                     0.569033054850    -2.712772840963    -5.996655540365
