
  -OEChem-05262117483D

 34 36  0     0  0  0  0  0  0999 V2000
   -2.5326   -4.0865  -12.5156 C   0  0  0  0  0  0  0  0  0  0  0  0
   -4.2812    0.2256   -9.3345 C   0  0  0  0  0  0  0  0  0  0  0  0
   -3.7109    1.3972   -8.8078 C   0  0  0  0  0  0  0  0  0  0  0  0
   -3.7073   -1.0234   -9.0930 C   0  0  0  0  0  0  0  0  0  0  0  0
   -2.5482    1.3418   -8.0320 C   0  0  0  0  0  0  0  0  0  0  0  0
   -1.6403   -4.8401  -10.2638 C   0  0  0  0  0  0  0  0  0  0  0  0
   -1.6575   -4.0517  -11.4037 C   0  0  0  0  0  0  0  0  0  0  0  0
   -0.5932   -4.3594   -9.4326 C   0  0  0  0  0  0  0  0  0  0  0  0
   -2.5446   -1.0989   -8.3145 C   0  0  0  0  0  0  0  0  0  0  0  0
   -1.9726    0.0921   -7.7993 C   0  0  0  0  0  0  0  0  0  0  0  0
    0.0363   -3.3093  -10.1166 C   0  0  0  0  0  0  0  0  0  0  0  0
   -0.8139   -2.0258   -7.2942 C   0  0  0  0  0  0  0  0  0  0  0  0
   -0.3276   -4.8873   -8.0972 C   0  0  0  0  0  0  0  0  0  0  0  0
    1.2379   -2.4984   -9.7572 C   0  0  0  0  0  0  0  0  0  0  0  0
   -0.2673   -2.1413  -12.3167 C   0  0  0  0  0  0  0  0  0  0  0  0
   -3.2508   -4.1012  -13.4373 N   0  0  0  0  0  0  0  0  0  0  0  0
   -1.8723   -2.2722   -7.9952 N   0  0  0  0  0  0  0  0  0  0  0  0
    0.0055   -4.3314   -6.9787 N   0  0  0  0  0  0  0  0  0  0  0  0
   -0.6225   -3.1227  -11.3006 N   0  0  0  0  0  0  0  0  0  0  0  0
    0.1362   -2.9434   -6.8837 N   0  0  0  0  0  0  0  0  0  0  0  0
   -0.5043   -0.2985   -6.9071 S   0  0  0  0  0  0  0  0  0  0  0  0
   -5.1819    0.2933   -9.9383 H   0  0  0  0  0  0  0  0  0  0  0  0
   -4.1741    2.3598   -9.0057 H   0  0  0  0  0  0  0  0  0  0  0  0
   -4.1374   -1.9359   -9.4949 H   0  0  0  0  0  0  0  0  0  0  0  0
   -2.1076    2.2496   -7.6299 H   0  0  0  0  0  0  0  0  0  0  0  0
   -2.3437   -5.6292  -10.0337 H   0  0  0  0  0  0  0  0  0  0  0  0
   -0.4382   -5.9674   -7.9911 H   0  0  0  0  0  0  0  0  0  0  0  0
    1.9378   -2.4301  -10.5969 H   0  0  0  0  0  0  0  0  0  0  0  0
    0.9642   -1.4770   -9.4663 H   0  0  0  0  0  0  0  0  0  0  0  0
    1.7580   -2.9534   -8.9153 H   0  0  0  0  0  0  0  0  0  0  0  0
   -0.1671   -1.1524  -11.8635 H   0  0  0  0  0  0  0  0  0  0  0  0
    0.6728   -2.4106  -12.8087 H   0  0  0  0  0  0  0  0  0  0  0  0
   -1.0573   -2.1041  -13.0667 H   0  0  0  0  0  0  0  0  0  0  0  0
    0.5690   -2.7128   -5.9967 H   0  0  0  0  0  0  0  0  0  0  0  0
  1  7  1  0  0  0  0
  1 16  3  0  0  0  0
  2  3  1  0  0  0  0
  2  4  2  0  0  0  0
  2 22  1  0  0  0  0
  3  5  2  0  0  0  0
  3 23  1  0  0  0  0
  4  9  1  0  0  0  0
  4 24  1  0  0  0  0
  5 10  1  0  0  0  0
  5 25  1  0  0  0  0
  6  7  2  0  0  0  0
  6  8  1  0  0  0  0
  6 26  1  0  0  0  0
  7 19  1  0  0  0  0
  8 11  2  0  0  0  0
  8 13  1  0  0  0  0
  9 10  2  0  0  0  0
  9 17  1  0  0  0  0
 10 21  1  0  0  0  0
 11 14  1  0  0  0  0
 11 19  1  0  0  0  0
 12 17  2  0  0  0  0
 12 20  1  0  0  0  0
 12 21  1  0  0  0  0
 13 18  2  0  0  0  0
 13 27  1  0  0  0  0
 14 28  1  0  0  0  0
 14 29  1  0  0  0  0
 14 30  1  0  0  0  0
 15 19  1  0  0  0  0
 15 31  1  0  0  0  0
 15 32  1  0  0  0  0
 15 33  1  0  0  0  0
 18 20  1  0  0  0  0
 20 34  1  0  0  0  0
M  END
$$$$
