32
0 1 C16H12N2O2
C                     6.308017389087    -9.506897210117    -2.136227411801
C                    -0.167846846020    -2.027747380098    -1.167578947169
C                    -0.140693911365    -1.206029407805    -0.033015879476
C                     4.060808572534    -8.967180959037    -1.285160879814
C                     5.521175470584    -7.176731335454    -2.058277020993
C                     3.076458589253    -8.028839986707    -0.988522127537
C                     4.537589386358    -6.244634717711    -1.735969850766
C                     0.682620159939    -3.126443636677    -1.255191447081
C                     0.737123459974    -1.493197872425     1.008224897954
C                     5.289932596756    -8.542880411355    -1.821717450811
C                     3.314197531392    -6.662316195131    -1.191371278446
C                     1.568772659732    -3.433048166399    -0.209401592468
C                     1.586488210970    -2.602103777768     0.928532889693
C                     2.186450705389    -5.698487137860    -0.935750665759
C                     3.647857542494    -4.384600873310     0.610734859646
C                     3.124031059564    -4.046215124505     2.000205447276
N                     7.136095113641   -10.287222544108    -2.388227986691
N                     2.508764876631    -4.505695097980    -0.305974300832
O                     1.056699409030    -5.974422884832    -1.330187536774
O                     2.436245399785    -2.796678036464     1.993154092151
H                    -0.849541427391    -1.813246778906    -1.985362968452
H                    -0.801324027646    -0.346658016299     0.040318530275
H                     3.885242988966   -10.024935510383    -1.115535527398
H                     6.463791094088    -6.857474210376    -2.491932315779
H                     2.110776067634    -8.344733169300    -0.606173410299
H                     4.714191522246    -5.189686022690    -1.925692618087
H                     0.657776808636    -3.763308023419    -2.129921492737
H                     0.783970444204    -0.877160450750     1.901427260593
H                     4.325753118336    -3.595039518414     0.266719406167
H                     4.197716305625    -5.322742885593     0.651332440939
H                     2.449238208462    -4.839025553390     2.348736951988
H                     3.945550484568    -3.936085150010     2.711703998249
