34
0 1 C15H13N5S
C                    -0.692118536321    -2.003578989036   -12.499978987313
C                    -5.233234946997     0.311124385740    -8.640344846820
C                    -4.640331898822     1.561616527519    -8.396210999176
C                    -4.516142474314    -0.871747417685    -8.455656586813
C                    -3.314295783725     1.650798588205    -7.961360869875
C                    -0.454094748673    -2.793975512574   -10.104929483035
C                    -0.877700894143    -2.897454692634   -11.417149633137
C                    -0.892785169910    -3.968750110910    -9.424625320077
C                    -3.185416213972    -0.803281538817    -8.021742852461
C                    -2.600560379515     0.465533596720    -7.781765226132
C                    -1.581752196645    -4.756020080858   -10.362997709658
C                    -1.189680843014    -1.514055180513    -7.390269315675
C                    -0.655630566413    -4.380532696501    -8.050782018116
C                    -2.281891202068    -6.067034680606   -10.204274407927
C                    -2.215529252413    -4.563727454374   -12.784906582242
N                    -0.549469431581    -1.281827417935   -13.407255860349
N                    -2.360082008666    -1.897591117407    -7.788502107116
N                    -0.262150257292    -3.729915057555    -7.006935503308
N                    -1.574116137744    -4.099582185817   -11.562077650118
N                    -0.100744201731    -2.334952250782    -7.135875642685
S                    -0.930180149557     0.252659591021    -7.267180209340
H                    -6.265364234794     0.265521052623    -8.977258863842
H                    -5.214746320773     2.471303310615    -8.547252923270
H                    -4.965806363992    -1.843436899702    -8.637933375687
H                    -2.856919242037     2.618183081319    -7.774576147345
H                     0.118105511160    -1.974352050140    -9.698866646911
H                    -0.781121174182    -5.442406342087    -7.841270399122
H                    -3.359243804952    -5.967568235459   -10.382173006814
H                    -1.899186666073    -6.818554364262   -10.904190508033
H                    -2.154116681333    -6.453384993577    -9.192776638885
H                    -1.795029747593    -5.522966036928   -13.099981842079
H                    -3.293124181417    -4.676771755938   -12.634452960328
H                    -2.047474058741    -3.831955944540   -13.574770896383
H                     0.469026340939    -2.002474416277    -6.364674794918
