24
-1 1 C7H9N2O4S2
C                     4.588800976596     1.260510117265    -5.206955572790
C                     3.738300103296     0.447901279766    -4.513137911947
C                     5.582754002220    -0.783025672380    -4.155718129841
C                     1.937175779434     2.141822709372    -4.170649510437
C                     1.877944206936     3.931820801916    -2.633226367019
C                     8.372794309634    -0.630236854937    -2.335440210380
C                     2.246987911527     0.675366712037    -4.342520458096
N                     4.278766209067    -0.670896958517    -3.927436441723
N                     6.313909809078    -1.804783330269    -3.670680659251
O                     1.657958128319     2.923476743839    -5.064489087106
O                     8.500959257315    -1.131931220712    -4.919384557774
O                     8.440483859075    -3.084570235588    -3.309283872278
O                     2.026698259819     2.523662305216    -2.867821091634
S                     6.203158273615     0.589872566709    -5.195200012182
S                     7.927008405184    -1.756503223024    -3.697844621959
H                     4.351823097121     2.171643797858    -5.741743511839
H                     1.992877126090     4.063447372904    -1.556270874589
H                     0.893571347325     4.279431940457    -2.959868895629
H                     2.648330095340     4.492102662730    -3.170228399392
H                     9.462765529406    -0.565538781309    -2.299840940680
H                     7.938034950099     0.350972212886    -2.538431297201
H                     7.976480690475    -1.048370350238    -1.408811591338
H                     1.694009019018     0.312698687942    -5.214644935711
H                     1.924272068324     0.120510880880    -3.459500846143
