24
-1 1 C7H9N2O4S2
C                     3.554002693577     0.458605486967    -5.663302923013
C                     3.648335542977     0.088197648196    -4.352030661590
C                     5.494831034039    -0.992316174676    -5.035712864315
C                     1.260452230570     0.466377269239    -3.747891069815
C                    -0.579351132024    -0.933822074123    -4.221847289150
C                     8.612025600301    -0.261370048996    -5.975384759664
C                     2.685373219768     0.500319404629    -3.252765163794
N                     4.712126381722    -0.706425127967    -4.000782652125
N                     6.599292004273    -1.753831841213    -4.914832088565
O                     0.643600812634     1.410063857457    -4.214802231234
O                     7.103712542868    -1.820543889219    -7.471010507716
O                     8.656322352551    -2.895315604887    -5.784637230092
O                     0.723133660265    -0.777280755244    -3.639309007454
S                     4.859391001844    -0.251282783046    -6.583597396679
S                     7.688265582125    -1.827804941398    -6.103438860595
H                     2.801943820678     1.085300257202    -6.125982084941
H                    -0.849005328543    -1.978413157142    -4.059828139457
H                    -0.547724803111    -0.710243363797    -5.291754294595
H                    -1.303732735030    -0.270202069560    -3.740830517590
H                     9.376244256404    -0.260382255064    -6.756079390556
H                     7.915085079525     0.566790285413    -6.121968789100
H                     9.066909087606    -0.217766143176    -4.984551551203
H                     2.809683513643    -0.198070093310    -2.423023282747
H                     2.896764634967     1.515347267216    -2.902710962241
