22
0 1 C7H11NO3
C                    -1.029979621798     1.197667518859     0.787393400533
C                    -1.443315638841    -0.654890490917    -0.912935200905
C                    -0.256799402550    -1.284355461515     1.294556135433
C                    -0.703590034602    -0.198199334260     0.336223017421
C                     0.789522380995    -0.647654108980     0.425950691561
C                     1.773424278181     0.323585461280     1.056531532852
C                     1.382027720746    -1.432203959896    -0.731913662709
N                    -1.248943372378     1.404612268541     2.115529555391
O                    -1.078043708321     2.136553284419    -0.022898947851
O                    -1.739011206824    -1.818427725429    -1.101480575391
O                    -1.706025961418     0.295815220242    -1.823452146625
H                    -0.226174652635    -1.064503698658     2.358370824196
H                    -0.598754721521    -2.282491511279     1.041247614399
H                     2.108997116730     1.065102732552     0.323757909550
H                     2.654063333535    -0.227311547538     1.404940570082
H                     1.352708546261     0.858056867689     1.911079527000
H                     1.705922946490    -0.756576151824    -1.531245930835
H                     0.680545144968    -2.153643565156    -1.151543951626
H                     2.263494726763    -1.979167112956    -0.378855946560
H                    -1.576790863956     2.325989306485     2.381972810430
H                    -1.471786013080     0.629615828437     2.724357604334
H                    -1.421228316537     1.173322192105    -1.459525395158
