
  -OEChem-05262117483D

 22 22  0     1  0  0  0  0  0999 V2000
   -0.4297    1.9245    0.3964 C   0  0  0  0  0  0  0  0  0  0  0  0
   -1.2306    0.2053   -1.4160 C   0  0  0  0  0  0  0  0  0  0  0  0
   -0.4401   -0.6088    0.8602 C   0  0  0  0  0  0  0  0  0  0  0  0
   -0.4760    0.5117   -0.1684 C   0  0  2  0  0  0  0  0  0  0  0  0
    0.8132   -0.3645    0.0897 C   0  0  0  0  0  0  0  0  0  0  0  0
    1.9857    0.3223    0.7697 C   0  0  0  0  0  0  0  0  0  0  0  0
    1.2436   -1.3533   -0.9801 C   0  0  0  0  0  0  0  0  0  0  0  0
   -0.1853    2.9474   -0.4789 N   0  0  0  0  0  0  0  0  0  0  0  0
   -0.5127    2.1224    1.6078 O   0  0  0  0  0  0  0  0  0  0  0  0
   -1.7556   -0.8604   -1.6813 O   0  0  0  0  0  0  0  0  0  0  0  0
   -1.2794    1.2378   -2.3173 O   0  0  0  0  0  0  0  0  0  0  0  0
   -0.4867   -0.2687    1.8889 H   0  0  0  0  0  0  0  0  0  0  0  0
   -1.0313   -1.4838    0.6126 H   0  0  0  0  0  0  0  0  0  0  0  0
    2.5859    0.8800    0.0422 H   0  0  0  0  0  0  0  0  0  0  0  0
    2.6300   -0.4414    1.2199 H   0  0  0  0  0  0  0  0  0  0  0  0
    1.6711    1.0058    1.5589 H   0  0  0  0  0  0  0  0  0  0  0  0
    1.8249   -0.8533   -1.7635 H   0  0  0  0  0  0  0  0  0  0  0  0
    0.4018   -1.8690   -1.4432 H   0  0  0  0  0  0  0  0  0  0  0  0
    1.8901   -2.1100   -0.5214 H   0  0  0  0  0  0  0  0  0  0  0  0
   -0.2837    3.8789   -0.0934 H   0  0  0  0  0  0  0  0  0  0  0  0
   -0.3613    2.8204   -1.4669 H   0  0  0  0  0  0  0  0  0  0  0  0
   -1.7977    0.9018   -3.0740 H   0  0  0  0  0  0  0  0  0  0  0  0
  1  4  1  0  0  0  0
  1  8  1  0  0  0  0
  1  9  2  0  0  0  0
  2  4  1  0  0  0  0
  2 10  2  0  0  0  0
  2 11  1  0  0  0  0
  3  4  1  0  0  0  0
  3  5  1  0  0  0  0
  3 12  1  0  0  0  0
  3 13  1  0  0  0  0
  4  5  1  0  0  0  0
  5  6  1  0  0  0  0
  5  7  1  0  0  0  0
  6 14  1  0  0  0  0
  6 15  1  0  0  0  0
  6 16  1  0  0  0  0
  7 17  1  0  0  0  0
  7 18  1  0  0  0  0
  7 19  1  0  0  0  0
  8 20  1  0  0  0  0
  8 21  1  0  0  0  0
 11 22  1  0  0  0  0
M  END
$$$$
