28
1 1 C8H15N2O3
C                     2.039041593430    -0.316543948851     0.402069421470
C                     4.217993952996    -2.643765926023    -0.202533316783
C                     5.420025728606    -1.732618095232    -0.103923419036
C                    -1.056891008223     0.880722115008     2.113586993476
C                    -1.104396008440     2.793725740930     0.728589736603
C                     4.098429569059    -1.191452131432    -0.590915188691
C                    -1.166693866534     2.406388501878     2.203598137265
C                     1.408463366275     0.690790142769     1.387744067604
N                     3.374239321825    -0.292083224423     0.285999617997
N                    -0.044913301910     0.713633500555     1.016738549632
O                     1.274827811049    -1.100054141177    -0.172358277537
O                    -0.290976884212     1.764170715051     0.070890785810
O                    -0.035080935331     2.950762237385     2.870523012262
H                     4.174344950694    -3.373074158276    -1.004104411977
H                     3.741920728480    -2.952008550259     0.722340804633
H                     5.748712415863    -1.444478611597     0.890670937617
H                     6.216310343465    -1.828590785431    -0.834420035135
H                    -0.701623744382     0.401962263085     3.024470833632
H                    -1.984863520417     0.418092568736     1.771643935541
H                    -2.087024064953     2.786183166476     0.252577520927
H                    -0.602259462188     3.749281768692     0.580603572771
H                     3.990959821320    -0.951356847842    -1.644808757273
H                    -2.112622594469     2.712589692730     2.658103310491
H                     1.794717802919     1.706893928462     1.334606536907
H                     1.502460235772     0.317769994239     2.408995096523
H                     3.888924760576     0.462984523637     0.726867000194
H                    -0.149857360908    -0.174704130695     0.460465962913
H                    -0.257461260362     3.162833931055     3.790862656494
