22
0 1 C7H11NO3
C                    -0.429722730220     1.924544795674     0.396380523034
C                    -1.230591030452     0.205264389783    -1.415963802348
C                    -0.440128216886    -0.608801547749     0.860247925930
C                    -0.475957763341     0.511662746773    -0.168415097676
C                     0.813158144611    -0.364539327006     0.089654949317
C                     1.985693349660     0.322276753121     0.769691650237
C                     1.243591332279    -1.353345373992    -0.980089863314
N                    -0.185310651783     2.947380604505    -0.478927807478
O                    -0.512680608554     2.122402942928     1.607790139041
O                    -1.755642881423    -0.860426237482    -1.681251498404
O                    -1.279425815957     1.237770065455    -2.317268974063
H                    -0.486735356838    -0.268683516177     1.888939001219
H                    -1.031323462032    -1.483846157506     0.612565368286
H                     2.585881823916     0.879953596237     0.042236183818
H                     2.630017806837    -0.441403999639     1.219876467253
H                     1.671087972727     1.005793847264     1.558902181810
H                     1.824865743000    -0.853327409870    -1.763487192724
H                     0.401817448450    -1.868983522226    -1.443179291041
H                     1.890072842770    -2.110047057234    -0.521358765552
H                    -0.283659300032     3.878896228005    -0.093365735713
H                    -0.361273626269     2.820429642263    -1.466943152584
H                    -1.797680295697     0.901835502532    -3.073993946394
