24
-1 1 C7H9N2O4S2
C                     4.014198273394     1.557272612341    -4.706103567175
C                     3.610502669188     0.435433134418    -4.040319296612
C                     5.815322941221     0.067172321052    -3.820957192011
C                     2.110044231427    -0.274195478921    -2.247606191596
C                     2.925017305701    -1.901857005406    -0.725448641225
C                     6.190220107777    -3.074460003347    -3.341869991066
C                     2.178097373239     0.051931742213    -3.730608385536
N                     4.599031691904    -0.394644599529    -3.566566688793
N                     7.019888491400    -0.437161559483    -3.520146713529
O                     1.892097956329     0.540068185676    -1.368109746259
O                     6.363374971644    -1.510310045223    -1.219720301767
O                     8.487419835038    -2.145006451143    -2.423755616381
O                     2.387681420717    -1.578313417918    -2.028036051558
S                     5.770035489856     1.615380043106    -4.750794170147
S                     7.073841515929    -1.721066569481    -2.506627551044
H                     3.403764494414     2.344969146747    -5.128722024548
H                     2.841717996939    -2.986447053873    -0.633710945659
H                     2.356114322609    -1.404081969474     0.062993286909
H                     3.977022357237    -1.601619953932    -0.705522679736
H                     6.256622010311    -3.945449570473    -2.685662229901
H                     5.156030082211    -2.763009586236    -3.490045949596
H                     6.692417456490    -3.269143690599    -4.291574043850
H                     1.502679632644     0.880681140817    -3.951340662230
H                     1.887668536696    -0.831329761935    -4.309582140125
