
  -OEChem-05262117483D

 22 22  0     1  0  0  0  0  0999 V2000
   -0.6863    1.8182    0.4740 C   0  0  0  0  0  0  0  0  0  0  0  0
   -1.5100    0.0732   -1.2227 C   0  0  0  0  0  0  0  0  0  0  0  0
   -0.5315   -0.6885    1.0692 C   0  0  0  0  0  0  0  0  0  0  0  0
   -0.7063    0.3732   -0.0058 C   0  0  2  0  0  0  0  0  0  0  0  0
    0.6386   -0.4285    0.1785 C   0  0  0  0  0  0  0  0  0  0  0  0
    1.8376    0.3344    0.7161 C   0  0  0  0  0  0  0  0  0  0  0  0
    1.0171   -1.4482   -0.8832 C   0  0  0  0  0  0  0  0  0  0  0  0
   -0.7086    2.7808   -0.4904 N   0  0  0  0  0  0  0  0  0  0  0  0
   -0.5844    2.0852    1.6717 O   0  0  0  0  0  0  0  0  0  0  0  0
   -1.6802    0.8290   -2.1721 O   0  0  0  0  0  0  0  0  0  0  0  0
   -2.0759   -1.1616   -1.2206 O   0  0  0  0  0  0  0  0  0  0  0  0
   -0.5020   -0.2901    2.0778 H   0  0  0  0  0  0  0  0  0  0  0  0
   -1.0882   -1.6091    0.9356 H   0  0  0  0  0  0  0  0  0  0  0  0
    2.3444    0.8781   -0.0889 H   0  0  0  0  0  0  0  0  0  0  0  0
    2.5520   -0.3820    1.1374 H   0  0  0  0  0  0  0  0  0  0  0  0
    1.5653    1.0431    1.4982 H   0  0  0  0  0  0  0  0  0  0  0  0
    1.4699   -0.9578   -1.7524 H   0  0  0  0  0  0  0  0  0  0  0  0
    0.1681   -2.0434   -1.2216 H   0  0  0  0  0  0  0  0  0  0  0  0
    1.7613   -2.1360   -0.4663 H   0  0  0  0  0  0  0  0  0  0  0  0
   -0.8206    3.7335   -0.1665 H   0  0  0  0  0  0  0  0  0  0  0  0
   -0.9926    2.5356   -1.4339 H   0  0  0  0  0  0  0  0  0  0  0  0
   -2.5424   -1.2395   -2.0755 H   0  0  0  0  0  0  0  0  0  0  0  0
  1  4  1  0  0  0  0
  1  8  1  0  0  0  0
  1  9  2  0  0  0  0
  2  4  1  0  0  0  0
  2 10  2  0  0  0  0
  2 11  1  0  0  0  0
  3  4  1  0  0  0  0
  3  5  1  0  0  0  0
  3 12  1  0  0  0  0
  3 13  1  0  0  0  0
  4  5  1  0  0  0  0
  5  6  1  0  0  0  0
  5  7  1  0  0  0  0
  6 14  1  0  0  0  0
  6 15  1  0  0  0  0
  6 16  1  0  0  0  0
  7 17  1  0  0  0  0
  7 18  1  0  0  0  0
  7 19  1  0  0  0  0
  8 20  1  0  0  0  0
  8 21  1  0  0  0  0
 11 22  1  0  0  0  0
M  END
$$$$
