28
1 1 C8H15N2O3
C                     2.241670601328     0.782020960652    -0.392197006760
C                     5.742837813268     0.635774249937    -1.554708632336
C                     4.731094119702    -0.335198556800    -2.118031727497
C                    -0.277940381373     0.835782280153     1.651773306168
C                    -1.985545248834     2.305671812070     0.968908285351
C                     4.592895051338     0.160336604293    -0.700187499223
C                    -1.095837350239     2.008229943416     2.176628419636
C                     1.247945053111     1.917587464756    -0.083146688763
N                     3.543372126677     1.111619737750    -0.391877314931
N                    -0.048496673018     1.223847476544     0.209006402927
O                     1.777453809179    -0.334999422123    -0.645821764095
O                    -1.154142497486     2.035200460103    -0.202570607901
O                    -0.175750605088     3.052382317360     2.461945129151
H                     6.733502028987     0.275929550306    -1.297694547884
H                     5.711895451191     1.658282916124    -1.920471919771
H                     4.022011876540     0.041934748603    -2.847335445869
H                     5.015016891775    -1.373378562659    -2.251829930630
H                     0.680749582000     0.710548286289     2.151703257537
H                    -0.839777959685    -0.098183158660     1.658182848714
H                    -2.862527435657     1.652955927274     0.932927145500
H                    -2.282988429847     3.352006682167     0.894461799109
H                     4.800844470413    -0.536597412895     0.106711950099
H                    -1.684618933460     1.717236548875     3.052579869796
H                     1.073133308938     2.527744447012    -0.971810483678
H                     1.507235589131     2.557047714430     0.759627329411
H                     3.813388365075     2.043709328019    -0.095713435700
H                    -0.023286056856     0.369722093899    -0.384751631575
H                    -0.620850209030     3.768319580317     2.944501118463
