
  -OEChem-05262117483D

 18 18  0     1  0  0  0  0  0999 V2000
    1.2661   -1.0416    0.0119 C   0  0  0  0  0  0  0  0  0  0  0  0
   -0.0941    0.9439    1.9374 C   0  0  0  0  0  0  0  0  0  0  0  0
   -0.2917    1.5958    4.0007 C   0  0  0  0  0  0  0  0  0  0  0  0
   -1.3578    1.5666   -0.1443 C   0  0  0  0  0  0  0  0  0  0  0  0
   -0.0858    0.9328    0.4199 C   0  0  2  0  0  0  0  0  0  0  0  0
    2.3138   -1.5397    0.1636 N   0  0  0  0  0  0  0  0  0  0  0  0
   -0.5291    1.9399    2.6484 N   0  0  0  0  0  0  0  0  0  0  0  0
    0.3733   -0.1277    2.6773 N   0  0  0  0  0  0  0  0  0  0  0  0
    0.4357    0.3684    3.9971 N   0  0  0  0  0  0  0  0  0  0  0  0
    0.0898   -0.4178   -0.1531 N   0  0  0  0  0  0  0  0  0  0  0  0
   -0.6304    2.1903    5.0033 O   0  0  0  0  0  0  0  0  0  0  0  0
   -2.2378    0.9716    0.1227 H   0  0  0  0  0  0  0  0  0  0  0  0
   -1.4902    2.5633    0.2775 H   0  0  0  0  0  0  0  0  0  0  0  0
   -1.2865    1.6298   -1.2324 H   0  0  0  0  0  0  0  0  0  0  0  0
    0.7799    1.5206    0.0974 H   0  0  0  0  0  0  0  0  0  0  0  0
    1.2195   -0.6061    2.3662 H   0  0  0  0  0  0  0  0  0  0  0  0
    0.1679   -0.3051    4.7097 H   0  0  0  0  0  0  0  0  0  0  0  0
   -0.7219   -1.0248   -0.0793 H   0  0  0  0  0  0  0  0  0  0  0  0
  1  6  3  0  0  0  0
  1 10  1  0  0  0  0
  2  5  1  0  0  0  0
  2  7  2  0  0  0  0
  2  8  1  0  0  0  0
  3  7  1  0  0  0  0
  3  9  1  0  0  0  0
  3 11  2  0  0  0  0
  4  5  1  0  0  0  0
  4 12  1  0  0  0  0
  4 13  1  0  0  0  0
  4 14  1  0  0  0  0
  5 10  1  0  0  0  0
  5 15  1  0  0  0  0
  8  9  1  0  0  0  0
  8 16  1  0  0  0  0
  9 17  1  0  0  0  0
 10 18  1  0  0  0  0
M  END
$$$$
