22
0 1 C5H12N2O2S
C                    -0.189305410546     0.178704292358     1.554939787525
C                    -0.233741860288    -0.861387646639    -0.685777876774
C                    -0.024290514579    -1.157460824896     0.814091263954
C                    -0.960512169223    -2.248959583480     1.333194956698
C                     1.491864150059     2.919579835233     2.039188868740
N                     0.556290816874     1.155753143578     0.745586823942
N                     0.458118114756     2.520217409201     1.086363278966
O                     1.137225432325     1.232495332855    -1.812580994598
O                    -1.274421117196     1.581954083042    -1.089789881325
S                     0.033836051234     0.933989198870    -0.901551254993
H                    -1.252296355604     0.457118710676     1.650602834971
H                     0.253310224985     0.134273245515     2.553342240972
H                     0.463409214808    -1.387999131019    -1.337707557696
H                    -1.260556515523    -1.041986525705    -1.008590469446
H                     1.014776635707    -1.470758514981     0.952833479806
H                    -2.009239179609    -1.957213852406     1.210734280051
H                    -0.783413485190    -2.440071837861     2.397083952524
H                    -0.806190298941    -3.189365098363     0.794408432934
H                     2.469662617841     2.777654142199     1.574506363603
H                     1.466807540341     2.362883335234     2.989436354769
H                     1.358278702623     3.983892781382     2.254195596184
H                    -0.483026946446     2.742046236327     1.415233379044
