41
0 1 C17H18O5S
C                     3.378342561917    -1.125384557767     2.288600788092
C                     2.909555218573     0.189316174011     2.353414783278
C                     2.738960910934    -2.045622039047     1.450670969232
C                     1.811334057294     0.582573387312     1.582990185562
C                     1.642304823006    -1.648558940913     0.683660278913
C                    -5.743609385392     0.498235229601     1.749682954295
C                    -5.380645969286    -1.655524220073     2.828740306855
C                    -4.368727297983     0.702825108944     1.699720365152
C                    -4.001367710450    -1.450046778253     2.774601123075
C                     1.168779459756    -0.329338787042     0.737654965564
C                    -6.250028790356    -0.683380375919     2.313475821234
C                    -3.505927748337    -0.276244527166     2.206542950233
C                    -0.848036246317     0.480892870008    -2.480950618632
C                    -1.525598255304     0.749552721380    -4.731391014576
C                     0.170869405704    -0.183357532783    -1.575660456765
C                    -1.341817650632    -0.529166362537     0.412462525389
C                    -0.034745161807     0.110965973945    -0.079293315566
O                    -1.746981636929     1.220636529773    -2.124668472278
O                    -1.475728917768     1.428936422915     2.217357146917
O                    -1.100233876216    -0.962888413028     3.063061965446
O                    -7.610399896713    -0.828236694680     2.336798602988
O                    -0.624681060444     0.151558522762    -3.773747017586
S                    -1.733310311941    -0.020314642150     2.125782893025
H                     4.229682858443    -1.433779547999     2.889990875623
H                     3.391285141093     0.908054747660     3.011291267734
H                     3.091965042598    -3.072589250780     1.399576062568
H                     1.430632853925     1.597522524206     1.659028151098
H                     1.150274317911    -2.380132554346     0.045863116794
H                    -6.438673443779     1.240546584195     1.369578985618
H                    -5.778195979248    -2.564284694337     3.277197291486
H                    -3.961405771530     1.620580611520     1.285951962701
H                    -3.311511427871    -2.180886115972     3.185197600283
H                    -1.199966381081     0.381983600838    -5.704137713283
H                    -1.458248104250     1.838905475871    -4.687733735942
H                    -2.554566630035     0.444245538383    -4.527821510605
H                     1.161374608963     0.169220267261    -1.883191374696
H                     0.164203852516    -1.257599288058    -1.787733679758
H                    -2.181781674316    -0.192111621419    -0.196946792970
H                    -1.300818889512    -1.621398312021     0.425934773911
H                    -0.153539450025     1.191310550070     0.032391413325
H                    -7.837970312450    -1.670936670379     2.761402575591
