
  -OEChem-05262117483D

 41 42  0     1  0  0  0  0  0999 V2000
    3.5961   -1.2214    2.7433 C   0  0  0  0  0  0  0  0  0  0  0  0
    3.4792    0.1306    2.4092 C   0  0  0  0  0  0  0  0  0  0  0  0
    2.7894   -2.1625    2.0942 C   0  0  0  0  0  0  0  0  0  0  0  0
    2.5620    0.5329    1.4327 C   0  0  0  0  0  0  0  0  0  0  0  0
    1.8733   -1.7593    1.1188 C   0  0  0  0  0  0  0  0  0  0  0  0
   -5.2064   -1.4638    0.3507 C   0  0  0  0  0  0  0  0  0  0  0  0
   -5.2230    0.6989    1.4731 C   0  0  0  0  0  0  0  0  0  0  0  0
   -4.0297   -1.1133   -0.3028 C   0  0  0  0  0  0  0  0  0  0  0  0
   -4.0406    1.0476    0.8203 C   0  0  0  0  0  0  0  0  0  0  0  0
    1.7520   -0.4030    0.7737 C   0  0  0  0  0  0  0  0  0  0  0  0
   -5.8026   -0.5574    1.2413 C   0  0  0  0  0  0  0  0  0  0  0  0
   -3.4514    0.1379   -0.0586 C   0  0  0  0  0  0  0  0  0  0  0  0
    0.5732   -1.8018   -2.0928 C   0  0  0  0  0  0  0  0  0  0  0  0
    0.2472   -3.2611   -3.9186 C   0  0  0  0  0  0  0  0  0  0  0  0
    1.0826   -0.4275   -1.7083 C   0  0  0  0  0  0  0  0  0  0  0  0
   -0.6701   -0.2024    0.2003 C   0  0  0  0  0  0  0  0  0  0  0  0
    0.7647    0.0787   -0.2816 C   0  0  1  0  0  0  0  0  0  0  0  0
    0.0877   -2.6401   -1.3508 O   0  0  0  0  0  0  0  0  0  0  0  0
   -1.8911   -0.1156   -2.1839 O   0  0  0  0  0  0  0  0  0  0  0  0
   -1.7391    2.0295   -0.7967 O   0  0  0  0  0  0  0  0  0  0  0  0
   -6.9582   -0.9568    1.8534 O   0  0  0  0  0  0  0  0  0  0  0  0
    0.7423   -2.0038   -3.4148 O   0  0  0  0  0  0  0  0  0  0  0  0
   -1.9193    0.5669   -0.8754 S   0  0  0  0  0  0  0  0  0  0  0  0
    4.3073   -1.5388    3.5017 H   0  0  0  0  0  0  0  0  0  0  0  0
    4.0994    0.8722    2.9065 H   0  0  0  0  0  0  0  0  0  0  0  0
    2.8729   -3.2163    2.3484 H   0  0  0  0  0  0  0  0  0  0  0  0
    2.4759    1.5875    1.1791 H   0  0  0  0  0  0  0  0  0  0  0  0
    1.2552   -2.4973    0.6184 H   0  0  0  0  0  0  0  0  0  0  0  0
   -5.6818   -2.4248    0.1807 H   0  0  0  0  0  0  0  0  0  0  0  0
   -5.6962    1.4034    2.1548 H   0  0  0  0  0  0  0  0  0  0  0  0
   -3.5650   -1.7943   -1.0096 H   0  0  0  0  0  0  0  0  0  0  0  0
   -3.5848    2.0211    0.9734 H   0  0  0  0  0  0  0  0  0  0  0  0
    0.4627   -3.2501   -4.9868 H   0  0  0  0  0  0  0  0  0  0  0  0
   -0.8283   -3.3367   -3.7436 H   0  0  0  0  0  0  0  0  0  0  0  0
    0.7546   -4.0965   -3.4304 H   0  0  0  0  0  0  0  0  0  0  0  0
    0.6794    0.2648   -2.4505 H   0  0  0  0  0  0  0  0  0  0  0  0
    2.1690   -0.4305   -1.8488 H   0  0  0  0  0  0  0  0  0  0  0  0
   -0.8947   -1.2680    0.2265 H   0  0  0  0  0  0  0  0  0  0  0  0
   -0.8263    0.2357    1.1891 H   0  0  0  0  0  0  0  0  0  0  0  0
    0.8684    1.1668   -0.3322 H   0  0  0  0  0  0  0  0  0  0  0  0
   -7.2789   -0.2480    2.4340 H   0  0  0  0  0  0  0  0  0  0  0  0
  1  2  1  0  0  0  0
  1  3  2  0  0  0  0
  1 24  1  0  0  0  0
  2  4  2  0  0  0  0
  2 25  1  0  0  0  0
  3  5  1  0  0  0  0
  3 26  1  0  0  0  0
  4 10  1  0  0  0  0
  4 27  1  0  0  0  0
  5 10  2  0  0  0  0
  5 28  1  0  0  0  0
  6  8  2  0  0  0  0
  6 11  1  0  0  0  0
  6 29  1  0  0  0  0
  7  9  1  0  0  0  0
  7 11  2  0  0  0  0
  7 30  1  0  0  0  0
  8 12  1  0  0  0  0
  8 31  1  0  0  0  0
  9 12  2  0  0  0  0
  9 32  1  0  0  0  0
 10 17  1  0  0  0  0
 11 21  1  0  0  0  0
 12 23  1  0  0  0  0
 13 15  1  0  0  0  0
 13 18  2  0  0  0  0
 13 22  1  0  0  0  0
 14 22  1  0  0  0  0
 14 33  1  0  0  0  0
 14 34  1  0  0  0  0
 14 35  1  0  0  0  0
 15 17  1  0  0  0  0
 15 36  1  0  0  0  0
 15 37  1  0  0  0  0
 16 17  1  0  0  0  0
 16 23  1  0  0  0  0
 16 38  1  0  0  0  0
 16 39  1  0  0  0  0
 17 40  1  0  0  0  0
 19 23  2  0  0  0  0
 20 23  2  0  0  0  0
 21 41  1  0  0  0  0
M  END
$$$$
