35
-1 1 C13ClH14O6S
C                    -2.332562280120    -2.656148678044     5.429769664381
C                    -1.976412703240    -3.920906627782     4.977976995328
C                    -2.390886662958    -1.553784133290     4.562778713720
C                    -1.767537917269    -3.050807067931     2.693934566188
C                    -1.690672149239    -4.114070888508     3.619866518140
C                    -2.119027517297    -1.792259563104     3.208862077054
C                    -2.720933965367    -0.165810725575     5.145143726922
C                    -2.454950411862    -1.976683197463    -1.490649026889
C                    -3.895852362319    -1.499122461099    -1.666494254154
C                    -4.044033469743    -3.793581553128    -1.413297855187
C                    -2.666245474475    -3.368830813226    -0.861410782266
C                     0.665935879833    -5.557533008893     3.052659997809
C                    -1.515038873322    -3.218551899168     1.214978127819
O                    -1.706983110697     0.546468118363     5.342571817148
O                    -3.938429891896     0.025014365502     5.371633716256
O                    -1.365015948740    -6.656749213832     4.329637945825
O                    -1.615760876069    -6.170230015302     1.844495545171
O                    -4.604956460499    -2.666624497653    -2.106158869469
O                    -2.776987325996    -3.308855995461     0.555718691641
S                    -1.133023447766    -5.763668397907     3.177929346002
Cl                   -2.232985311021    -0.419750909570     2.099022777197
H                    -2.571885404200    -2.500807247323     6.478397321746
H                    -1.924433731962    -4.766061969862     5.656234173833
H                    -1.965803636810    -2.071903963889    -2.467148613332
H                    -1.858849043085    -1.319752564354    -0.854020097547
H                    -4.299366675704    -1.135829716849    -0.711505319150
H                    -4.024984137930    -0.727689981884    -2.430572069742
H                    -3.975611576085    -4.621355466462    -2.125980371376
H                    -4.680319640423    -4.090146712729    -0.571903174455
H                    -1.876171447405    -4.080274552024    -1.138709525688
H                     1.072665976668    -6.539615637163     2.800648093235
H                     0.893869750354    -4.833415444149     2.269289555893
H                     1.040786203622    -5.215756906368     4.018246399679
H                    -0.949733718459    -2.353172150236     0.849347743240
H                    -0.940517187150    -4.123073912688     0.997107540937
