41
0 1 C17H18O5S
C                     3.976711825466    -1.182594382272     1.793938219052
C                     3.633136705636     0.171704664305     1.848655036800
C                     3.317558452276    -2.025546325700     0.892810766212
C                     2.635176893050     0.676090102575     1.009209283984
C                     2.320544924962    -1.517319018546     0.056627777199
C                    -5.051258164559    -1.490352883446     0.133233470506
C                    -4.766328844513     0.286118619368     1.776494363270
C                    -3.971871145181    -0.991937966432    -0.589431328167
C                    -3.684018777225     0.783521744264     1.051904312070
C                     1.966225031206    -0.160734841895     0.106476090524
C                    -5.446984280596    -0.852697345024     1.319052828037
C                    -3.289945593832     0.136993121126    -0.121350124185
C                     2.506650591420     0.557881576487    -2.734994045102
C                     4.090907050421     2.311797530418    -2.676849995274
C                     1.132243959151     0.115638576964    -2.281677229263
C                    -0.483811964963    -0.149459678942    -0.317378964031
C                     0.872960783987     0.403494961375    -0.787783028421
O                     3.267672011733    -0.108135203957    -3.409616289471
O                    -2.038620622375     0.347610889827    -2.446651643174
O                    -1.704390168824     2.185096054064    -0.690651583009
O                    -6.514084493073    -1.386424701815     1.985318517566
O                     2.788692334305     1.813302432473    -2.310393242271
S                    -1.888545420377     0.764623392001    -1.039897582791
H                     4.754444958432    -1.576888116143     2.442793136959
H                     4.144614700769     0.836163996842     2.540531416338
H                     3.584145871063    -3.077841927274     0.837195950613
H                     2.377655888581     1.732019479387     1.046172894245
H                     1.827788002435    -2.183818154602    -0.647170594471
H                    -5.605211912617    -2.359764629343    -0.207007959900
H                    -5.086866297978     0.787110327768     2.688075415568
H                    -3.668714802956    -1.456224027878    -1.522953930323
H                    -3.160538609029     1.677061907176     1.378158249979
H                     4.143820882035     3.318875442059    -2.263328898500
H                     4.198688335368     2.334774214402    -3.763674732642
H                     4.871059978477     1.677377704260    -2.249739204389
H                     1.047879294954    -0.949174462816    -2.506265784336
H                     0.386108404901     0.631106451847    -2.893701767855
H                    -0.625717035961    -1.201203782612    -0.580012598246
H                    -0.584830021193    -0.034854712073     0.764755882099
H                     0.851670577190     1.486704471167    -0.649155892737
H                    -6.702050397346    -0.855876848085     2.776282848251
