35
-1 1 C13ClH14O6S
C                    -1.485095253853    -3.216511169589     5.504802505432
C                    -1.780667851636    -4.387694755499     4.818267360194
C                    -1.338113584786    -1.990144888900     4.838508208582
C                    -1.748155373149    -3.156125101755     2.695682697812
C                    -1.918388861307    -4.354598165915     3.424290553443
C                    -1.456395126745    -2.002278689502     3.441111609982
C                    -1.084104888217    -0.720015240129     5.672049084575
C                    -0.809974090626    -4.450877673061    -1.411875093463
C                     0.578988804388    -5.084059923060    -1.464091162591
C                     0.960498982126    -2.818977373618    -1.194426117940
C                    -0.500970731815    -3.082533363711    -0.770941508599
C                    -4.200586435813    -5.664059387128     2.402468029011
C                    -1.847637550735    -3.085441504698     1.190670393814
O                     0.103350568831    -0.570979199295     6.042884350362
O                    -2.123101869605    -0.050418258348     5.888348205645
O                    -1.809879931237    -6.099403746777     1.340145625275
O                    -2.297035423029    -6.975593734148     3.676337960516
O                     1.451369065100    -4.005866230042    -1.837226147868
O                    -0.527969178475    -3.129773934076     0.651714099418
S                    -2.421920472148    -5.904052121467     2.669863691903
Cl                   -1.218089234726    -0.474297416925     2.587285281255
H                    -1.364331177554    -3.235249604500     6.584667525293
H                    -1.899816413413    -5.330547958403     5.341465286434
H                    -1.200831411192    -4.311696192498    -2.426917492549
H                    -1.517344895311    -5.036699943858    -0.823124874576
H                     0.853031091799    -5.483516928936    -0.478455691446
H                     0.688174419817    -5.870689234035    -2.215721587162
H                     1.050778360552    -1.993270024294    -1.907405883552
H                     1.547451009226    -2.589234992353    -0.297696365850
H                    -1.179278843626    -2.292555874439    -1.124014502094
H                    -4.574747342240    -6.590339955734     1.960445939806
H                    -4.669523351095    -5.475412431785     3.369001753340
H                    -4.355379406106    -4.822890019469     1.725471027824
H                    -2.440061074397    -3.912769284601     0.793494236969
H                    -2.331455146143    -2.145063782202     0.896182752191
