38
0 1 C15Cl2H16N4O
C                    -3.698957095334     1.741477468965    -9.686514444290
C                    -4.263917507119     3.020505666458    -9.726637163122
C                    -2.826190678137     1.403515670482    -8.652390285412
C                    -3.946705355620     3.963617954525    -8.746667703499
C                    -0.685023555827     1.390064890680    -4.681154946650
C                    -2.507851463847     2.337233115688    -7.661928813358
C                    -3.060515088449     3.624955250243    -7.721342978451
C                     0.279824125240     1.424122593081    -5.741989113566
C                    -1.873428060451     1.741795779641    -5.308655177517
C                    -0.524041064289     1.070514082833    -3.273547212298
C                    -0.166170264447     0.781812988717    -0.456991845731
C                     2.173731343744     0.630117213261    -1.038986710058
C                     0.047487759624     2.247283901508    -0.064804221284
C                     2.341709097623     2.092591670680    -0.621248383130
C                     1.745127616946     1.136697615100    -5.664687192387
N                    -0.281117265006     1.764795731547    -6.901145099447
N                     0.635547534545     0.763316070285    -2.795834025272
N                    -1.608885863957     1.966257972488    -6.627677440278
N                     0.799294056240     0.371581569700    -1.490562527582
O                     1.388947411289     2.452612459320     0.384280055304
Cl                   -2.627071872014     4.831092303277    -6.533292858513
Cl                   -3.467025619076     1.858726697314    -4.660574514662
H                    -3.940678656912     1.010649699060   -10.452590057310
H                    -4.949641889368     3.291523388604   -10.524582743535
H                    -2.374861430734     0.417897270595    -8.593934264451
H                    -4.369076925366     4.962762859474    -8.778345785943
H                    -1.436206349395     1.101464874703    -2.673057768504
H                     0.015797664856     0.145816521393     0.415096409703
H                    -1.190264022759     0.591005392239    -0.784236477464
H                     2.852908480955     0.375672813344    -1.855337587160
H                     2.379816609092    -0.024740225248    -0.185403628219
H                    -0.168311585322     2.908442427692    -0.916935357276
H                    -0.602322349607     2.528955299722     0.768391117865
H                     3.328442928986     2.269064205778    -0.184114367322
H                     2.222118762835     2.743391886348    -1.500942370320
H                     1.924250779524     0.130339029916    -5.275051345118
H                     2.189241675959     1.230992855876    -6.658555343278
H                     2.240431855687     1.829806099105    -4.977873599393
