27
0 1 C10H15NO
C                     2.013800295574    -1.008869531048    -0.106666324440
C                     0.969443288803    -0.368172054472     0.573711944495
C                     2.887966804543    -1.783839506999     2.005387684992
C                     2.981508063045    -1.717308416432     0.606133838427
C                     0.857750786298    -0.418649162618     1.963124661306
C                     1.840517762412    -1.143754537169     2.672420416888
C                    -0.264655075284     0.260455255060     2.706593591048
C                     5.391530318994    -1.457913516083    -0.075224858293
C                     2.635151603671    -1.881620580939     4.809046399672
C                     4.153838995107    -2.367065364520    -0.110309746577
N                     4.494895559504    -3.651089344139     0.531809951961
O                     1.678229790696    -1.165338093353     4.036578341823
H                     2.068520791103    -0.953704923545    -1.191717048127
H                     0.218626034976     0.180161524685     0.008561023622
H                     3.640267019293    -2.351735762199     2.539571361875
H                    -0.849174019654    -0.461253098138     3.287531794320
H                     0.121206648368     0.996763057157     3.420008551998
H                    -0.937017235538     0.771272408401     2.011855606367
H                     5.709551471320    -1.295875151965     0.959137171034
H                     6.224874774989    -1.910749230461    -0.626734675488
H                     5.169274546402    -0.487004967335    -0.527293413885
H                     2.322144876384    -1.773056796359     5.848749885554
H                     3.642204707485    -1.464174603254     4.686553321505
H                     2.650217702201    -2.945526145304     4.542309530658
H                     3.862215583346    -2.494491744860    -1.165976778495
H                     5.270520080039    -4.084638041467     0.032548631874
H                     3.703300629505    -4.289033167722     0.459277822489
