
  -OEChem-05262117483D

 27 27  0     1  0  0  0  0  0999 V2000
    1.9832   -0.7813   -0.1586 C   0  0  0  0  0  0  0  0  0  0  0  0
    0.9072   -0.2632    0.5727 C   0  0  0  0  0  0  0  0  0  0  0  0
    2.9170   -1.6522    1.8897 C   0  0  0  0  0  0  0  0  0  0  0  0
    2.9964   -1.4819    0.4985 C   0  0  0  0  0  0  0  0  0  0  0  0
    0.8046   -0.4247    1.9553 C   0  0  0  0  0  0  0  0  0  0  0  0
    1.8349   -1.1337    2.6083 C   0  0  0  0  0  0  0  0  0  0  0  0
   -0.3504    0.1326    2.7487 C   0  0  0  0  0  0  0  0  0  0  0  0
    3.7611   -3.4969   -0.8002 C   0  0  0  0  0  0  0  0  0  0  0  0
    2.6918   -1.9638    4.6882 C   0  0  0  0  0  0  0  0  0  0  0  0
    4.1495   -2.1085   -0.2692 C   0  0  1  0  0  0  0  0  0  0  0  0
    4.5257   -1.2562   -1.4110 N   0  0  0  0  0  0  0  0  0  0  0  0
    1.6883   -1.2584    3.9694 O   0  0  0  0  0  0  0  0  0  0  0  0
    2.0447   -0.6407   -1.2329 H   0  0  0  0  0  0  0  0  0  0  0  0
    0.1228    0.2837    0.0534 H   0  0  0  0  0  0  0  0  0  0  0  0
    3.7103   -2.1918    2.3973 H   0  0  0  0  0  0  0  0  0  0  0  0
   -0.8850   -0.6611    3.2818 H   0  0  0  0  0  0  0  0  0  0  0  0
   -0.0047    0.8422    3.5083 H   0  0  0  0  0  0  0  0  0  0  0  0
   -1.0586    0.6463    2.0928 H   0  0  0  0  0  0  0  0  0  0  0  0
    2.9272   -3.4081   -1.5027 H   0  0  0  0  0  0  0  0  0  0  0  0
    4.6051   -3.9668   -1.3203 H   0  0  0  0  0  0  0  0  0  0  0  0
    3.4570   -4.1535    0.0205 H   0  0  0  0  0  0  0  0  0  0  0  0
    2.3797   -1.9473    5.7337 H   0  0  0  0  0  0  0  0  0  0  0  0
    3.6705   -1.4763    4.5947 H   0  0  0  0  0  0  0  0  0  0  0  0
    2.7713   -3.0048    4.3502 H   0  0  0  0  0  0  0  0  0  0  0  0
    4.9836   -2.2443    0.4407 H   0  0  0  0  0  0  0  0  0  0  0  0
    5.3126   -1.6757   -1.9043 H   0  0  0  0  0  0  0  0  0  0  0  0
    4.8369   -0.3467   -1.0728 H   0  0  0  0  0  0  0  0  0  0  0  0
  1  2  1  0  0  0  0
  1  4  2  0  0  0  0
  1 13  1  0  0  0  0
  2  5  2  0  0  0  0
  2 14  1  0  0  0  0
  3  4  1  0  0  0  0
  3  6  2  0  0  0  0
  3 15  1  0  0  0  0
  4 10  1  0  0  0  0
  5  6  1  0  0  0  0
  5  7  1  0  0  0  0
  6 12  1  0  0  0  0
  7 16  1  0  0  0  0
  7 17  1  0  0  0  0
  7 18  1  0  0  0  0
  8 10  1  0  0  0  0
  8 19  1  0  0  0  0
  8 20  1  0  0  0  0
  8 21  1  0  0  0  0
  9 12  1  0  0  0  0
  9 22  1  0  0  0  0
  9 23  1  0  0  0  0
  9 24  1  0  0  0  0
 10 11  1  0  0  0  0
 10 25  1  0  0  0  0
 11 26  1  0  0  0  0
 11 27  1  0  0  0  0
M  END
$$$$
