
  -OEChem-05262117483D

 17 18  0     0  0  0  0  0  0999 V2000
   -0.0877   -2.4421    1.3893 C   0  0  0  0  0  0  0  0  0  0  0  0
   -1.1865   -1.7479    1.0129 C   0  0  0  0  0  0  0  0  0  0  0  0
    1.2494   -1.9337    1.1390 C   0  0  0  0  0  0  0  0  0  0  0  0
   -1.0460   -0.4637    0.3377 C   0  0  0  0  0  0  0  0  0  0  0  0
    0.3310    0.1188    0.1517 C   0  0  0  0  0  0  0  0  0  0  0  0
    1.4553   -0.7274    0.5494 C   0  0  0  0  0  0  0  0  0  0  0  0
   -0.5888    2.0922   -0.6387 C   0  0  0  0  0  0  0  0  0  0  0  0
   -1.9186    1.3794   -0.8138 C   0  0  0  0  0  0  0  0  0  0  0  0
    0.5409    1.3071   -0.3299 N   0  0  0  0  0  0  0  0  0  0  0  0
   -2.1014    0.1191   -0.1260 N   0  0  0  0  0  0  0  0  0  0  0  0
   -0.4868    3.2983   -0.7787 O   0  0  0  0  0  0  0  0  0  0  0  0
    3.2213   -0.0843    0.2534 Br  0  0  0  0  0  0  0  0  0  0  0  0
   -0.1837   -3.4067    1.8794 H   0  0  0  0  0  0  0  0  0  0  0  0
   -2.1956   -2.1154    1.1699 H   0  0  0  0  0  0  0  0  0  0  0  0
    2.1010   -2.5369    1.4381 H   0  0  0  0  0  0  0  0  0  0  0  0
   -2.7294    2.0604   -0.5363 H   0  0  0  0  0  0  0  0  0  0  0  0
   -2.0633    1.1841   -1.8884 H   0  0  0  0  0  0  0  0  0  0  0  0
  1  2  2  0  0  0  0
  1  3  1  0  0  0  0
  1 13  1  0  0  0  0
  2  4  1  0  0  0  0
  2 14  1  0  0  0  0
  3  6  2  0  0  0  0
  3 15  1  0  0  0  0
  4  5  1  0  0  0  0
  4 10  2  0  0  0  0
  5  6  1  0  0  0  0
  5  9  2  0  0  0  0
  6 12  1  0  0  0  0
  7  8  1  0  0  0  0
  7  9  1  0  0  0  0
  7 11  2  0  0  0  0
  8 10  1  0  0  0  0
  8 16  1  0  0  0  0
  8 17  1  0  0  0  0
M  END
$$$$
