25
0 1 C10H11N3O
C                    -0.806566199973     0.243599516247     0.702903104373
C                    -1.738357916391    -0.743854202502     1.003179648342
C                    -1.812715522028     1.798123121771     2.278526804490
C                    -4.427374764676    -0.506343759082     3.426286223582
C                    -2.778787523365     0.825202609517     2.601351282482
C                    -3.885421559815     0.763325584892     3.535199497960
C                    -0.829355449388     1.513605395759     1.333949552816
C                    -2.715060013660    -0.439727015892     1.958808834853
C                    -4.374423477898     1.752646653598     4.501978241921
C                     0.212306542517     2.546042389521     0.961941662081
N                    -4.472270048102     3.035771121919     4.370469492239
N                    -3.737268922124    -1.224462597425     2.477120322854
N                    -4.870982882649     1.216185884843     5.707262139580
O                    -4.175874214624     3.462957341723     3.046489447568
H                    -0.035461133281     0.036441550483    -0.036160049374
H                    -1.702856168759    -1.715148018719     0.515421481917
H                    -1.854276221720     2.771807951129     2.753844231655
H                    -5.274619790519    -0.928484940946     3.949049213781
H                     0.155833200395     2.803174819164    -0.102342523287
H                     0.079536768834     3.468157799010     1.534525448389
H                     1.226834094511     2.176865046517     1.152779157071
H                    -3.955083887190    -2.167708904912     2.189468745900
H                    -5.160880684569     1.955518691421     6.343351530421
H                    -4.211513363119     0.584842694987     6.153831004047
H                    -4.339985641048     4.416825251849     3.108932501304
