18
0 1 BrC7H7N2O
C                    -1.932449417301     3.959149619201    -0.580563635767
C                    -1.419916523274     3.340651248323     0.562580125066
C                    -3.309969775903     4.122183376235    -0.746144634931
C                    -3.675792172433     3.038296482570     1.405669104223
C                    -2.288831059555     2.876331002030     1.562279623607
C                    -4.162816073728     3.656298575184     0.258494653495
C                    -1.756944921950     2.210291832097     2.776048486248
N                    -2.461296871192     2.286539071345     3.860462821422
N                    -0.511711960253     1.604759128398     2.693695330463
O                    -1.816666157996     1.562391930886     4.905566052728
Br                   -6.059443173135     3.859080208373     0.039853383506
H                    -1.255627213930     4.324983789923    -1.347959239005
H                    -0.346120287585     3.249247357742     0.693497058830
H                    -3.712440678831     4.599277891602    -1.633658432516
H                    -4.346221311837     2.676276240175     2.176384193770
H                    -0.312991778032     1.150393620913     1.810459591953
H                    -0.289150354985     1.033204369510     3.501934587689
H                    -2.418316664217     1.700843940664     5.653480293295
