36
0 1 C17H14N4O
C                    -4.847481085536     3.098572449794    -1.408317847834
C                    -0.490033183923     3.064004541186    -3.514127682598
C                     0.700001699812    -2.525435948473    -4.881908307091
C                    -3.820687396302     3.792936517858    -2.008187498112
C                    -1.586791498304     3.775680488236    -3.082969135852
C                    -4.756974187369     1.698106845627    -1.246413016293
C                    -0.389109289486    -1.991766049743    -4.140029390822
C                    -0.493986603362     1.660153800985    -3.335049510666
C                     0.952257348701    -3.815967241419    -4.412493968130
C                    -2.672424380425     3.098388036828    -2.469946780711
C                    -3.661448178542     0.969625389264    -1.683274108956
C                    -2.584070392114     1.673157516005    -2.321697547012
C                    -0.777179581853    -2.979153563131    -3.231497357068
C                    -1.745615814673    -3.309069444380    -2.197646084294
C                    -3.735556901554    -0.521845714421    -1.392048474412
C                    -1.559645321242    -4.789651298178    -1.865899847866
C                    -0.209159578563    -5.185855769246    -2.513320997163
N                    -1.485799281798     0.994759115977    -2.774239171155
N                    -2.647635751338    -2.616656114019    -1.593271347334
N                     0.047335028497    -4.071911922229    -3.426682169847
N                    -2.726684920415    -1.288049097279    -1.920735550566
O                    -4.668680726347    -0.979614238837    -0.738683664894
H                    -5.730177269670     3.621895018434    -1.051202607213
H                     0.360155326654     3.549925229707    -3.983095560039
H                     1.238776618719    -2.034220302198    -5.682514347098
H                    -3.872227780217     4.872083825252    -2.133664982286
H                    -1.635651954196     4.855698747234    -3.202685118476
H                    -5.555338627420     1.147283085518    -0.759728111211
H                    -0.850887606589    -1.024081327939    -4.271975320257
H                     0.355266634120     1.064580148889    -3.668922975979
H                     1.693164600360    -4.544371734248    -4.713442223191
H                    -1.575190034100    -4.960312742530    -0.788255885301
H                    -2.381764685033    -5.362679990226    -2.306070451846
H                     0.594957832701    -5.255737504076    -1.772731061327
H                    -0.258011340073    -6.130525309425    -3.061260693847
H                    -1.959028676234    -0.793800561781    -2.388414373488
