
  -OEChem-05262117483D

 38 40  0     0  0  0  0  0  0999 V2000
   -3.4499    1.8726   -9.9974 C   0  0  0  0  0  0  0  0  0  0  0  0
   -4.2599    3.0116   -9.9429 C   0  0  0  0  0  0  0  0  0  0  0  0
   -2.6591    1.5343   -8.8992 C   0  0  0  0  0  0  0  0  0  0  0  0
   -4.2700    3.8176   -8.8023 C   0  0  0  0  0  0  0  0  0  0  0  0
   -1.0694    1.2513   -4.6889 C   0  0  0  0  0  0  0  0  0  0  0  0
   -2.6671    2.3299   -7.7503 C   0  0  0  0  0  0  0  0  0  0  0  0
   -3.4659    3.4818   -7.7105 C   0  0  0  0  0  0  0  0  0  0  0  0
   -0.0181    1.6790   -5.5601 C   0  0  0  0  0  0  0  0  0  0  0  0
   -2.2223    1.4526   -5.4427 C   0  0  0  0  0  0  0  0  0  0  0  0
   -0.8922    0.7219   -3.3457 C   0  0  0  0  0  0  0  0  0  0  0  0
   -0.4811   -0.6387   -0.8645 C   0  0  0  0  0  0  0  0  0  0  0  0
   -2.8879   -0.8598   -0.8979 C   0  0  0  0  0  0  0  0  0  0  0  0
   -0.3629   -2.0834   -1.3607 C   0  0  0  0  0  0  0  0  0  0  0  0
   -2.7187   -2.3028   -1.3774 C   0  0  0  0  0  0  0  0  0  0  0  0
    1.4541    1.6927   -5.2805 C   0  0  0  0  0  0  0  0  0  0  0  0
   -0.4850    2.1028   -6.7335 N   0  0  0  0  0  0  0  0  0  0  0  0
   -1.8985    0.3813   -2.6138 N   0  0  0  0  0  0  0  0  0  0  0  0
   -1.8436    1.9652   -6.6514 N   0  0  0  0  0  0  0  0  0  0  0  0
   -1.7457   -0.0357   -1.3173 N   0  0  0  0  0  0  0  0  0  0  0  0
   -1.4802   -2.8560   -0.9178 O   0  0  0  0  0  0  0  0  0  0  0  0
   -3.4471    4.5234   -6.3086 Cl  0  0  0  0  0  0  0  0  0  0  0  0
   -3.8697    1.1250   -5.0891 Cl  0  0  0  0  0  0  0  0  0  0  0  0
   -3.4382    1.2496  -10.8868 H   0  0  0  0  0  0  0  0  0  0  0  0
   -4.8841    3.2805  -10.7906 H   0  0  0  0  0  0  0  0  0  0  0  0
   -2.0232    0.6544   -8.9114 H   0  0  0  0  0  0  0  0  0  0  0  0
   -4.8858    4.7099   -8.7568 H   0  0  0  0  0  0  0  0  0  0  0  0
    0.1459    0.6509   -3.0104 H   0  0  0  0  0  0  0  0  0  0  0  0
   -0.5018   -0.6344    0.2299 H   0  0  0  0  0  0  0  0  0  0  0  0
    0.3719   -0.0296   -1.1709 H   0  0  0  0  0  0  0  0  0  0  0  0
   -3.7954   -0.4143   -1.3100 H   0  0  0  0  0  0  0  0  0  0  0  0
   -2.9409   -0.8362    0.1960 H   0  0  0  0  0  0  0  0  0  0  0  0
   -0.3021   -2.1071   -2.4590 H   0  0  0  0  0  0  0  0  0  0  0  0
    0.5280   -2.5678   -0.9511 H   0  0  0  0  0  0  0  0  0  0  0  0
   -3.5069   -2.9481   -0.9796 H   0  0  0  0  0  0  0  0  0  0  0  0
   -2.7571   -2.3318   -2.4769 H   0  0  0  0  0  0  0  0  0  0  0  0
    1.8300    0.6868   -5.0618 H   0  0  0  0  0  0  0  0  0  0  0  0
    1.9880    2.0784   -6.1517 H   0  0  0  0  0  0  0  0  0  0  0  0
    1.6908    2.3291   -4.4206 H   0  0  0  0  0  0  0  0  0  0  0  0
  1  2  1  0  0  0  0
  1  3  2  0  0  0  0
  1 23  1  0  0  0  0
  2  4  2  0  0  0  0
  2 24  1  0  0  0  0
  3  6  1  0  0  0  0
  3 25  1  0  0  0  0
  4  7  1  0  0  0  0
  4 26  1  0  0  0  0
  5  8  1  0  0  0  0
  5  9  2  0  0  0  0
  5 10  1  0  0  0  0
  6  7  2  0  0  0  0
  6 18  1  0  0  0  0
  7 21  1  0  0  0  0
  8 15  1  0  0  0  0
  8 16  2  0  0  0  0
  9 18  1  0  0  0  0
  9 22  1  0  0  0  0
 10 17  2  0  0  0  0
 10 27  1  0  0  0  0
 11 13  1  0  0  0  0
 11 19  1  0  0  0  0
 11 28  1  0  0  0  0
 11 29  1  0  0  0  0
 12 14  1  0  0  0  0
 12 19  1  0  0  0  0
 12 30  1  0  0  0  0
 12 31  1  0  0  0  0
 13 20  1  0  0  0  0
 13 32  1  0  0  0  0
 13 33  1  0  0  0  0
 14 20  1  0  0  0  0
 14 34  1  0  0  0  0
 14 35  1  0  0  0  0
 15 36  1  0  0  0  0
 15 37  1  0  0  0  0
 15 38  1  0  0  0  0
 16 18  1  0  0  0  0
 17 19  1  0  0  0  0
M  END
$$$$
