
  -OEChem-05262117483D

 34 37  0     0  0  0  0  0  0999 V2000
   -1.3395   -4.6190    1.8867 C   0  0  0  0  0  0  0  0  0  0  0  0
   -0.9273   -4.0807    3.1122 C   0  0  0  0  0  0  0  0  0  0  0  0
   -0.5081   -5.4747    1.1532 C   0  0  0  0  0  0  0  0  0  0  0  0
    0.3360   -4.3888    3.6361 C   0  0  0  0  0  0  0  0  0  0  0  0
   -1.3978   -7.3636   -2.7360 C   0  0  0  0  0  0  0  0  0  0  0  0
   -1.0722   -8.9449   -5.0867 C   0  0  0  0  0  0  0  0  0  0  0  0
    0.7533   -5.7852    1.6713 C   0  0  0  0  0  0  0  0  0  0  0  0
   -0.1929   -8.0929   -2.9408 C   0  0  0  0  0  0  0  0  0  0  0  0
   -2.3774   -7.4439   -3.6932 C   0  0  0  0  0  0  0  0  0  0  0  0
   -2.2207   -8.2189   -4.8481 C   0  0  0  0  0  0  0  0  0  0  0  0
    1.1422   -5.2364    2.8956 C   0  0  0  0  0  0  0  0  0  0  0  0
   -0.0612   -8.8651   -4.1106 C   0  0  0  0  0  0  0  0  0  0  0  0
    1.8566   -6.6470    1.1529 C   0  0  0  0  0  0  0  0  0  0  0  0
    0.8736   -8.0287   -1.9458 C   0  0  0  0  0  0  0  0  0  0  0  0
   -4.1886   -7.1532   -4.9863 C   0  0  0  0  0  0  0  0  0  0  0  0
    2.9431   -6.7526    1.8693 N   0  0  0  0  0  0  0  0  0  0  0  0
    0.7530   -7.3200   -0.8746 N   0  0  0  0  0  0  0  0  0  0  0  0
    1.8116   -7.3371   -0.0210 N   0  0  0  0  0  0  0  0  0  0  0  0
    3.7558   -4.7170    3.2410 O   0  0  0  0  0  0  0  0  0  0  0  0
    2.7682   -6.7074    4.4490 O   0  0  0  0  0  0  0  0  0  0  0  0
   -3.6205   -6.8549   -3.7004 O   0  0  0  0  0  0  0  0  0  0  0  0
   -3.3495   -8.1416   -5.6182 O   0  0  0  0  0  0  0  0  0  0  0  0
    2.8021   -5.8250    3.2830 S   0  0  0  0  0  0  0  0  0  0  0  0
    1.4017   -9.7900   -4.4292 Cl  0  0  0  0  0  0  0  0  0  0  0  0
   -2.3222   -4.3694    1.4964 H   0  0  0  0  0  0  0  0  0  0  0  0
   -1.5908   -3.4192    3.6623 H   0  0  0  0  0  0  0  0  0  0  0  0
   -0.8275   -5.8896    0.2078 H   0  0  0  0  0  0  0  0  0  0  0  0
    0.6714   -3.9806    4.5847 H   0  0  0  0  0  0  0  0  0  0  0  0
   -1.5214   -6.7677   -1.8402 H   0  0  0  0  0  0  0  0  0  0  0  0
   -0.9491   -9.5487   -5.9783 H   0  0  0  0  0  0  0  0  0  0  0  0
    1.7817   -8.6051   -2.1422 H   0  0  0  0  0  0  0  0  0  0  0  0
   -5.1910   -7.5658   -4.8539 H   0  0  0  0  0  0  0  0  0  0  0  0
   -4.1987   -6.2456   -5.6017 H   0  0  0  0  0  0  0  0  0  0  0  0
    2.6462   -7.8854   -0.2390 H   0  0  0  0  0  0  0  0  0  0  0  0
  1  2  1  0  0  0  0
  1  3  2  0  0  0  0
  1 25  1  0  0  0  0
  2  4  2  0  0  0  0
  2 26  1  0  0  0  0
  3  7  1  0  0  0  0
  3 27  1  0  0  0  0
  4 11  1  0  0  0  0
  4 28  1  0  0  0  0
  5  8  1  0  0  0  0
  5  9  2  0  0  0  0
  5 29  1  0  0  0  0
  6 10  2  0  0  0  0
  6 12  1  0  0  0  0
  6 30  1  0  0  0  0
  7 11  2  0  0  0  0
  7 13  1  0  0  0  0
  8 12  2  0  0  0  0
  8 14  1  0  0  0  0
  9 10  1  0  0  0  0
  9 21  1  0  0  0  0
 10 22  1  0  0  0  0
 11 23  1  0  0  0  0
 12 24  1  0  0  0  0
 13 16  2  0  0  0  0
 13 18  1  0  0  0  0
 14 17  2  0  0  0  0
 14 31  1  0  0  0  0
 15 21  1  0  0  0  0
 15 22  1  0  0  0  0
 15 32  1  0  0  0  0
 15 33  1  0  0  0  0
 16 23  1  0  0  0  0
 17 18  1  0  0  0  0
 18 34  1  0  0  0  0
 19 23  2  0  0  0  0
 20 23  2  0  0  0  0
M  END
$$$$
