
  -OEChem-05262117483D

 25 26  0     0  0  0  0  0  0999 V2000
   -0.8066    0.2436    0.7029 C   0  0  0  0  0  0  0  0  0  0  0  0
   -1.7384   -0.7439    1.0032 C   0  0  0  0  0  0  0  0  0  0  0  0
   -1.8127    1.7981    2.2785 C   0  0  0  0  0  0  0  0  0  0  0  0
   -4.4274   -0.5063    3.4263 C   0  0  0  0  0  0  0  0  0  0  0  0
   -2.7788    0.8252    2.6014 C   0  0  0  0  0  0  0  0  0  0  0  0
   -3.8854    0.7633    3.5352 C   0  0  0  0  0  0  0  0  0  0  0  0
   -0.8294    1.5136    1.3339 C   0  0  0  0  0  0  0  0  0  0  0  0
   -2.7151   -0.4397    1.9588 C   0  0  0  0  0  0  0  0  0  0  0  0
   -4.3744    1.7526    4.5020 C   0  0  0  0  0  0  0  0  0  0  0  0
    0.2123    2.5460    0.9619 C   0  0  0  0  0  0  0  0  0  0  0  0
   -4.4723    3.0358    4.3705 N   0  0  0  0  0  0  0  0  0  0  0  0
   -3.7373   -1.2245    2.4771 N   0  0  0  0  0  0  0  0  0  0  0  0
   -4.8710    1.2162    5.7073 N   0  0  0  0  0  0  0  0  0  0  0  0
   -4.1759    3.4630    3.0465 O   0  0  0  0  0  0  0  0  0  0  0  0
   -0.0355    0.0364   -0.0362 H   0  0  0  0  0  0  0  0  0  0  0  0
   -1.7029   -1.7151    0.5154 H   0  0  0  0  0  0  0  0  0  0  0  0
   -1.8543    2.7718    2.7538 H   0  0  0  0  0  0  0  0  0  0  0  0
   -5.2746   -0.9285    3.9490 H   0  0  0  0  0  0  0  0  0  0  0  0
    0.1558    2.8032   -0.1023 H   0  0  0  0  0  0  0  0  0  0  0  0
    0.0795    3.4682    1.5345 H   0  0  0  0  0  0  0  0  0  0  0  0
    1.2268    2.1769    1.1528 H   0  0  0  0  0  0  0  0  0  0  0  0
   -3.9551   -2.1677    2.1895 H   0  0  0  0  0  0  0  0  0  0  0  0
   -5.1609    1.9555    6.3434 H   0  0  0  0  0  0  0  0  0  0  0  0
   -4.2115    0.5848    6.1538 H   0  0  0  0  0  0  0  0  0  0  0  0
   -4.3400    4.4168    3.1089 H   0  0  0  0  0  0  0  0  0  0  0  0
  1  2  1  0  0  0  0
  1  7  2  0  0  0  0
  1 15  1  0  0  0  0
  2  8  2  0  0  0  0
  2 16  1  0  0  0  0
  3  5  2  0  0  0  0
  3  7  1  0  0  0  0
  3 17  1  0  0  0  0
  4  6  2  0  0  0  0
  4 12  1  0  0  0  0
  4 18  1  0  0  0  0
  5  6  1  0  0  0  0
  5  8  1  0  0  0  0
  6  9  1  0  0  0  0
  7 10  1  0  0  0  0
  8 12  1  0  0  0  0
  9 11  2  0  0  0  0
  9 13  1  0  0  0  0
 10 19  1  0  0  0  0
 10 20  1  0  0  0  0
 10 21  1  0  0  0  0
 11 14  1  0  0  0  0
 12 22  1  0  0  0  0
 13 23  1  0  0  0  0
 13 24  1  0  0  0  0
 14 25  1  0  0  0  0
M  END
$$$$
