27
0 1 C10H15NO
C                     1.983182620758    -0.781314440283    -0.158594007863
C                     0.907206889350    -0.263230715445     0.572744592679
C                     2.916976696115    -1.652156292883     1.889677245762
C                     2.996361712800    -1.481888731004     0.498549888954
C                     0.804571244223    -0.424701198331     1.955273571246
C                     1.834865551832    -1.133728703402     2.608311830798
C                    -0.350444104613     0.132592742739     2.748660369365
C                     3.761067995119    -3.496891322492    -0.800154265547
C                     2.691808374490    -1.963813888164     4.688205698513
C                     4.149549997940    -2.108511628390    -0.269205390742
N                     4.525686931448    -1.256202445434    -1.411025589411
O                     1.688254026348    -1.258449480040     3.969416985323
H                     2.044683998357    -0.640669504268    -1.232887971761
H                     0.122790750932     0.283705169113     0.053383285885
H                     3.710333759767    -2.191836157738     2.397328823986
H                    -0.884954140958    -0.661100205564     3.281840885011
H                    -0.004678069420     0.842214841907     3.508295927482
H                    -1.058574500850     0.646259668821     2.092762462625
H                     2.927151927193    -3.408079479475    -1.502668556965
H                     4.605108699490    -3.966789996187    -1.320284329241
H                     3.457040394368    -4.153450626661     0.020470569507
H                     2.379721801703    -1.947311835522     5.733697621064
H                     3.670524467306    -1.476259862431     4.594705191948
H                     2.771263612991    -3.004815175863     4.350155061760
H                     4.983573033748    -2.244262130298     0.440651462020
H                     5.312559611022    -1.675668535954    -1.904291294660
H                     4.836859826863    -0.346685104881    -1.072789555422
