17
0 1 BrC8H5N2O
C                    -0.087686203714    -2.442115853630     1.389303462884
C                    -1.186538747490    -1.747866341849     1.012917943089
C                     1.249409582792    -1.933679891902     1.139013956045
C                    -1.046021824735    -0.463703924180     0.337701221041
C                     0.330998059229     0.118829436168     0.151659458024
C                     1.455256808356    -0.727429452068     0.549414730533
C                    -0.588757071732     2.092240360514    -0.638743098134
C                    -1.918627716025     1.379409780541    -0.813848831998
N                     0.540927257251     1.307061894697    -0.329902657111
N                    -2.101365651088     0.119114641517    -0.126037443623
O                    -0.486848912975     3.298340873861    -0.778698061151
Br                    3.221253703377    -0.084261109509     0.253405524509
H                    -0.183728332547    -3.406731485199     1.879354517121
H                    -2.195620462724    -2.115429704943     1.169929515296
H                     2.100969884744    -2.536945637474     1.438108715008
H                    -2.729385946734     2.060360444589    -0.536276837340
H                    -2.063322170061     1.184113877591    -1.888361351376
