
  -OEChem-05262117483D

 34 37  0     0  0  0  0  0  0999 V2000
    5.4393   -4.6154    1.7398 C   0  0  0  0  0  0  0  0  0  0  0  0
    5.5509   -3.3030    2.2184 C   0  0  0  0  0  0  0  0  0  0  0  0
    4.3264   -5.0150    0.9891 C   0  0  0  0  0  0  0  0  0  0  0  0
    4.5487   -2.3585    1.9558 C   0  0  0  0  0  0  0  0  0  0  0  0
   -0.7096   -8.5392   -3.0225 C   0  0  0  0  0  0  0  0  0  0  0  0
   -2.9500   -6.9140   -3.6491 C   0  0  0  0  0  0  0  0  0  0  0  0
    3.3266   -4.0753    0.7263 C   0  0  0  0  0  0  0  0  0  0  0  0
   -0.7555   -7.1918   -2.5602 C   0  0  0  0  0  0  0  0  0  0  0  0
   -1.7560   -9.0215   -3.7706 C   0  0  0  0  0  0  0  0  0  0  0  0
   -2.8575   -8.2228   -4.0787 C   0  0  0  0  0  0  0  0  0  0  0  0
    3.4576   -2.7767    1.2115 C   0  0  0  0  0  0  0  0  0  0  0  0
   -1.8835   -6.4025   -2.8853 C   0  0  0  0  0  0  0  0  0  0  0  0
    2.0449   -4.2006   -0.0322 C   0  0  0  0  0  0  0  0  0  0  0  0
    0.4031   -6.7663   -1.7778 C   0  0  0  0  0  0  0  0  0  0  0  0
   -3.1191  -10.1966   -5.1058 C   0  0  0  0  0  0  0  0  0  0  0  0
    1.2799   -3.1545   -0.1292 N   0  0  0  0  0  0  0  0  0  0  0  0
    0.5819   -5.5895   -1.2903 N   0  0  0  0  0  0  0  0  0  0  0  0
    1.7353   -5.4050   -0.5883 N   0  0  0  0  0  0  0  0  0  0  0  0
    1.1891   -1.4864    1.8495 O   0  0  0  0  0  0  0  0  0  0  0  0
    2.3829   -0.8168   -0.2779 O   0  0  0  0  0  0  0  0  0  0  0  0
   -1.9369  -10.2834   -4.2920 O   0  0  0  0  0  0  0  0  0  0  0  0
   -3.7675   -8.9443   -4.8063 O   0  0  0  0  0  0  0  0  0  0  0  0
    1.9976   -1.8471    0.6857 S   0  0  0  0  0  0  0  0  0  0  0  0
   -2.0397   -4.7460   -2.3685 Cl  0  0  0  0  0  0  0  0  0  0  0  0
    6.2261   -5.3331    1.9536 H   0  0  0  0  0  0  0  0  0  0  0  0
    6.4229   -3.0150    2.7988 H   0  0  0  0  0  0  0  0  0  0  0  0
    4.2655   -6.0397    0.6306 H   0  0  0  0  0  0  0  0  0  0  0  0
    4.6230   -1.3386    2.3209 H   0  0  0  0  0  0  0  0  0  0  0  0
    0.1403   -9.1714   -2.7838 H   0  0  0  0  0  0  0  0  0  0  0  0
   -3.8084   -6.2956   -3.8852 H   0  0  0  0  0  0  0  0  0  0  0  0
    1.1570   -7.5534   -1.6227 H   0  0  0  0  0  0  0  0  0  0  0  0
   -2.8355  -10.2091   -6.1655 H   0  0  0  0  0  0  0  0  0  0  0  0
   -3.7929  -11.0186   -4.8557 H   0  0  0  0  0  0  0  0  0  0  0  0
    2.3891   -6.1782   -0.4732 H   0  0  0  0  0  0  0  0  0  0  0  0
  1  2  1  0  0  0  0
  1  3  2  0  0  0  0
  1 25  1  0  0  0  0
  2  4  2  0  0  0  0
  2 26  1  0  0  0  0
  3  7  1  0  0  0  0
  3 27  1  0  0  0  0
  4 11  1  0  0  0  0
  4 28  1  0  0  0  0
  5  8  1  0  0  0  0
  5  9  2  0  0  0  0
  5 29  1  0  0  0  0
  6 10  2  0  0  0  0
  6 12  1  0  0  0  0
  6 30  1  0  0  0  0
  7 11  2  0  0  0  0
  7 13  1  0  0  0  0
  8 12  2  0  0  0  0
  8 14  1  0  0  0  0
  9 10  1  0  0  0  0
  9 21  1  0  0  0  0
 10 22  1  0  0  0  0
 11 23  1  0  0  0  0
 12 24  1  0  0  0  0
 13 16  2  0  0  0  0
 13 18  1  0  0  0  0
 14 17  2  0  0  0  0
 14 31  1  0  0  0  0
 15 21  1  0  0  0  0
 15 22  1  0  0  0  0
 15 32  1  0  0  0  0
 15 33  1  0  0  0  0
 16 23  1  0  0  0  0
 17 18  1  0  0  0  0
 18 34  1  0  0  0  0
 19 23  2  0  0  0  0
 20 23  2  0  0  0  0
M  END
$$$$
