32
0 1 C16H11N3OS
C                     5.519386851612    -2.739422935557     3.443540559838
C                     9.364523542115     4.013375487500     4.089413394826
C                     8.270719248385     4.752998076811     3.629845064632
C                     5.775177377810    -7.254458847405     3.490776642780
C                     9.323404959399     2.623507006233     4.022508265931
C                     7.157340753133     4.093081460747     3.106549277651
C                     5.822465717001    -5.839193220302     3.478556771504
C                     7.027139261666    -7.833692475630     3.515279309794
C                     8.200108106272     1.955212260774     3.499889714653
C                     7.089637132870     2.693582843263     3.026331394246
C                     7.121866861389    -5.338890955723     3.493929713439
C                     8.243630577011     0.482962058737     3.464357295909
C                     7.652339910629    -1.539019226553     3.465869398622
C                     7.633745226708    -4.000096214031     3.489752060449
C                     6.948328809720    -2.814395593283     3.468068431563
C                     5.855881495695     2.056183511279     2.428845798429
N                     4.354336614787    -2.716061158734     3.421458714518
N                     7.131086853517    -0.341993996534     3.460179690544
N                     9.391076998367    -0.173992905940     3.464232346586
O                     9.001951060966    -1.530644108177     3.472318174365
S                     8.281057862926    -6.658515358648     3.523798888258
H                    10.237083045731     4.513607091045     4.500407839755
H                     8.283401874548     5.838953423648     3.677508997933
H                     4.855424157179    -7.829359016993     3.481909670062
H                    10.160863630622     2.034416891532     4.382805412077
H                     6.314377929823     4.676541204011     2.744399910724
H                     4.942432289090    -5.209365048925     3.459422856006
H                     7.271004747670    -8.888618484824     3.528459351952
H                     8.717253282408    -3.905079371336     3.505524504719
H                     6.108737818928     1.337649602208     1.644415218765
H                     5.286490563589     1.502428315803     3.179221893090
H                     5.209647581929     2.824416997837     1.996142541071
