
  -OEChem-05262117483D

 30 31  0     0  0  0  0  0  0999 V2000
    6.0318   -0.2634    0.5786 C   0  0  0  0  0  0  0  0  0  0  0  0
    2.5939   -0.6374    2.6402 C   0  0  0  0  0  0  0  0  0  0  0  0
    0.9335   -1.5195    1.0927 C   0  0  0  0  0  0  0  0  0  0  0  0
    6.4985    1.0369    0.4297 C   0  0  0  0  0  0  0  0  0  0  0  0
    1.6080    0.1188    3.2675 C   0  0  0  0  0  0  0  0  0  0  0  0
   -0.0501   -0.7399    1.6989 C   0  0  0  0  0  0  0  0  0  0  0  0
    3.8105    0.4350   -0.1017 C   0  0  0  0  0  0  0  0  0  0  0  0
    2.2600   -1.4429    1.5388 C   0  0  0  0  0  0  0  0  0  0  0  0
    4.6792   -0.5676    0.3575 C   0  0  0  0  0  0  0  0  0  0  0  0
    5.6364    2.0527   -0.0074 C   0  0  0  0  0  0  0  0  0  0  0  0
    0.2977    0.0682    2.7836 C   0  0  0  0  0  0  0  0  0  0  0  0
    4.2966    1.7223   -0.2886 C   0  0  0  0  0  0  0  0  0  0  0  0
    3.2150   -2.3296    0.9443 N   0  0  0  0  0  0  0  0  0  0  0  0
    4.3215   -1.9461    0.4962 N   0  0  0  0  0  0  0  0  0  0  0  0
   -1.5579    0.0218    4.7918 N   0  0  0  0  0  0  0  0  0  0  0  0
   -0.3000    2.1681    4.2640 O   0  0  0  0  0  0  0  0  0  0  0  0
   -2.0526    1.2514    2.6162 O   0  0  0  0  0  0  0  0  0  0  0  0
    6.1431    3.3030   -0.1603 O   0  0  0  0  0  0  0  0  0  0  0  0
   -0.9661    1.0555    3.5805 S   0  0  0  0  0  0  0  0  0  0  0  0
    3.2269    2.9855   -0.8861 Cl  0  0  0  0  0  0  0  0  0  0  0  0
    6.7026   -1.0616    0.8817 H   0  0  0  0  0  0  0  0  0  0  0  0
    3.6195   -0.6003    2.9934 H   0  0  0  0  0  0  0  0  0  0  0  0
    0.6903   -2.1750    0.2615 H   0  0  0  0  0  0  0  0  0  0  0  0
    7.5359    1.2918    0.6230 H   0  0  0  0  0  0  0  0  0  0  0  0
    1.8517    0.7621    4.1070 H   0  0  0  0  0  0  0  0  0  0  0  0
   -1.0728   -0.7512    1.3357 H   0  0  0  0  0  0  0  0  0  0  0  0
    2.7738    0.2210   -0.3304 H   0  0  0  0  0  0  0  0  0  0  0  0
   -1.4195    0.4566    5.7032 H   0  0  0  0  0  0  0  0  0  0  0  0
   -2.5446   -0.1694    4.6221 H   0  0  0  0  0  0  0  0  0  0  0  0
    5.4394    3.8981   -0.4767 H   0  0  0  0  0  0  0  0  0  0  0  0
  1  4  1  0  0  0  0
  1  9  2  0  0  0  0
  1 21  1  0  0  0  0
  2  5  2  0  0  0  0
  2  8  1  0  0  0  0
  2 22  1  0  0  0  0
  3  6  1  0  0  0  0
  3  8  2  0  0  0  0
  3 23  1  0  0  0  0
  4 10  2  0  0  0  0
  4 24  1  0  0  0  0
  5 11  1  0  0  0  0
  5 25  1  0  0  0  0
  6 11  2  0  0  0  0
  6 26  1  0  0  0  0
  7  9  1  0  0  0  0
  7 12  2  0  0  0  0
  7 27  1  0  0  0  0
  8 13  1  0  0  0  0
  9 14  1  0  0  0  0
 10 12  1  0  0  0  0
 10 18  1  0  0  0  0
 11 19  1  0  0  0  0
 12 20  1  0  0  0  0
 13 14  2  0  0  0  0
 15 19  1  0  0  0  0
 15 28  1  0  0  0  0
 15 29  1  0  0  0  0
 16 19  2  0  0  0  0
 17 19  2  0  0  0  0
 18 30  1  0  0  0  0
M  END
$$$$
