
  -OEChem-05262117483D

 25 26  0     0  0  0  0  0  0999 V2000
   -3.0069    1.1165   -4.7259 C   0  0  0  0  0  0  0  0  0  0  0  0
   -4.1577    0.7498   -5.4364 C   0  0  0  0  0  0  0  0  0  0  0  0
   -3.5424   -1.5884   -5.2245 C   0  0  0  0  0  0  0  0  0  0  0  0
   -2.1132    0.1465   -4.2579 C   0  0  0  0  0  0  0  0  0  0  0  0
   -2.4110   -1.2022   -4.5243 C   0  0  0  0  0  0  0  0  0  0  0  0
   -4.4159   -0.5950   -5.6797 C   0  0  0  0  0  0  0  0  0  0  0  0
    2.8599    2.1559   -2.7415 C   0  0  0  0  0  0  0  0  0  0  0  0
    2.2230    3.4307   -2.1748 C   0  0  0  0  0  0  0  0  0  0  0  0
    0.6600    1.7522   -2.5054 C   0  0  0  0  0  0  0  0  0  0  0  0
   -0.6465    1.7469   -3.2761 C   0  0  0  0  0  0  0  0  0  0  0  0
    1.7508    1.5052   -3.3667 O   0  0  0  0  0  0  0  0  0  0  0  0
    0.8540    3.0536   -1.9458 O   0  0  0  0  0  0  0  0  0  0  0  0
   -0.9716    0.3880   -3.5595 O   0  0  0  0  0  0  0  0  0  0  0  0
   -1.5596   -2.1505   -4.0760 F   0  0  0  0  0  0  0  0  0  0  0  0
   -5.9875   -1.1063   -6.6502 Br  0  0  0  0  0  0  0  0  0  0  0  0
   -2.8187    2.1683   -4.5443 H   0  0  0  0  0  0  0  0  0  0  0  0
   -4.8397    1.5144   -5.7924 H   0  0  0  0  0  0  0  0  0  0  0  0
   -3.7250   -2.6425   -5.4028 H   0  0  0  0  0  0  0  0  0  0  0  0
    3.6222    2.3371   -3.5009 H   0  0  0  0  0  0  0  0  0  0  0  0
    3.2764    1.5236   -1.9451 H   0  0  0  0  0  0  0  0  0  0  0  0
    2.6729    3.7520   -1.2308 H   0  0  0  0  0  0  0  0  0  0  0  0
    2.2508    4.2575   -2.8933 H   0  0  0  0  0  0  0  0  0  0  0  0
    0.6352    1.0054   -1.6961 H   0  0  0  0  0  0  0  0  0  0  0  0
   -0.5203    2.3245   -4.1990 H   0  0  0  0  0  0  0  0  0  0  0  0
   -1.4225    2.2092   -2.6547 H   0  0  0  0  0  0  0  0  0  0  0  0
  1  2  1  0  0  0  0
  1  4  2  0  0  0  0
  1 16  1  0  0  0  0
  2  6  2  0  0  0  0
  2 17  1  0  0  0  0
  3  5  2  0  0  0  0
  3  6  1  0  0  0  0
  3 18  1  0  0  0  0
  4  5  1  0  0  0  0
  4 13  1  0  0  0  0
  5 14  1  0  0  0  0
  6 15  1  0  0  0  0
  7  8  1  0  0  0  0
  7 11  1  0  0  0  0
  7 19  1  0  0  0  0
  7 20  1  0  0  0  0
  8 12  1  0  0  0  0
  8 21  1  0  0  0  0
  8 22  1  0  0  0  0
  9 10  1  0  0  0  0
  9 11  1  0  0  0  0
  9 12  1  0  0  0  0
  9 23  1  0  0  0  0
 10 13  1  0  0  0  0
 10 24  1  0  0  0  0
 10 25  1  0  0  0  0
M  END
$$$$
