
  -OEChem-05262117483D

 48 51  0     1  0  0  0  0  0999 V2000
    2.6672   -8.9309    3.1248 C   0  0  0  0  0  0  0  0  0  0  0  0
    1.7704   -9.3505    4.0715 C   0  0  0  0  0  0  0  0  0  0  0  0
    2.7198   -7.1140    4.3916 C   0  0  0  0  0  0  0  0  0  0  0  0
    2.3451   -1.6561    2.6888 C   0  0  0  0  0  0  0  0  0  0  0  0
    0.3699   -0.2472    4.3231 C   0  0  0  0  0  0  0  0  0  0  0  0
    1.2657   -1.3523    4.9343 C   0  0  0  0  0  0  0  0  0  0  0  0
    0.6055   -3.3662    3.4595 C   0  0  0  0  0  0  0  0  0  0  0  0
    1.0225   -0.0955   -0.1828 C   0  0  0  0  0  0  0  0  0  0  0  0
    2.2317    1.5743    1.2650 C   0  0  0  0  0  0  0  0  0  0  0  0
    0.2590   -0.3595    2.7966 C   0  0  0  0  0  0  0  0  0  0  0  0
    0.9595   -4.6965    4.1299 C   0  0  0  0  0  0  0  0  0  0  0  0
    2.7997   -3.3426    4.5282 C   0  0  0  0  0  0  0  0  0  0  0  0
    1.5128    0.7140   -1.3869 C   0  0  0  0  0  0  0  0  0  0  0  0
    2.6440    2.2789   -0.0309 C   0  0  0  0  0  0  0  0  0  0  0  0
    1.9925    0.0819    0.9942 C   0  0  0  0  0  0  0  0  0  0  0  0
    1.7524   -2.3928    3.9023 C   0  0  1  0  0  0  0  0  0  0  0  0
    3.0705   -5.7310    4.8714 C   0  0  0  0  0  0  0  0  0  0  0  0
    3.1963   -7.6739    3.3142 N   0  0  0  0  0  0  0  0  0  0  0  0
    1.5611   -0.6439    2.1936 N   0  0  0  0  0  0  0  0  0  0  0  0
    2.4177   -4.6879    4.0939 N   0  0  1  0  0  0  0  0  0  0  0  0
    3.4420   -1.9435    2.2056 O   0  0  0  0  0  0  0  0  0  0  0  0
    1.6787    2.0942   -1.0652 O   0  0  0  0  0  0  0  0  0  0  0  0
    1.5710   -8.1163    5.2691 S   0  0  0  0  0  0  0  0  0  0  0  0
    2.9797   -9.5150    2.2657 H   0  0  0  0  0  0  0  0  0  0  0  0
    1.2428  -10.2934    4.1313 H   0  0  0  0  0  0  0  0  0  0  0  0
   -0.6387   -0.2779    4.7482 H   0  0  0  0  0  0  0  0  0  0  0  0
    0.7850    0.7355    4.5670 H   0  0  0  0  0  0  0  0  0  0  0  0
    2.1473   -0.8960    5.3971 H   0  0  0  0  0  0  0  0  0  0  0  0
    0.7384   -1.8803    5.7361 H   0  0  0  0  0  0  0  0  0  0  0  0
    0.6058   -3.4925    2.3733 H   0  0  0  0  0  0  0  0  0  0  0  0
   -0.3832   -3.0115    3.7608 H   0  0  0  0  0  0  0  0  0  0  0  0
    0.0186    0.2519    0.0881 H   0  0  0  0  0  0  0  0  0  0  0  0
    0.9498   -1.1560   -0.4505 H   0  0  0  0  0  0  0  0  0  0  0  0
    3.0157    1.6933    2.0214 H   0  0  0  0  0  0  0  0  0  0  0  0
    1.3211    2.0505    1.6476 H   0  0  0  0  0  0  0  0  0  0  0  0
   -0.4694   -1.1281    2.5140 H   0  0  0  0  0  0  0  0  0  0  0  0
   -0.1128    0.5812    2.3869 H   0  0  0  0  0  0  0  0  0  0  0  0
    0.5690   -4.7260    5.1682 H   0  0  0  0  0  0  0  0  0  0  0  0
    0.5548   -5.5611    3.5970 H   0  0  0  0  0  0  0  0  0  0  0  0
    3.8129   -3.1060    4.1991 H   0  0  0  0  0  0  0  0  0  0  0  0
    2.7517   -3.2539    5.6313 H   0  0  0  0  0  0  0  0  0  0  0  0
    2.4671    0.3015   -1.7531 H   0  0  0  0  0  0  0  0  0  0  0  0
    0.7905    0.6783   -2.2065 H   0  0  0  0  0  0  0  0  0  0  0  0
    2.7281    3.3587    0.1165 H   0  0  0  0  0  0  0  0  0  0  0  0
    3.6238    1.9020   -0.3671 H   0  0  0  0  0  0  0  0  0  0  0  0
    2.9483   -0.3719    0.7226 H   0  0  0  0  0  0  0  0  0  0  0  0
    2.8264   -5.6507    5.9495 H   0  0  0  0  0  0  0  0  0  0  0  0
    4.1530   -5.6050    4.7694 H   0  0  0  0  0  0  0  0  0  0  0  0
  1  2  2  0  0  0  0
  1 18  1  0  0  0  0
  1 24  1  0  0  0  0
  2 23  1  0  0  0  0
  2 25  1  0  0  0  0
  3 17  1  0  0  0  0
  3 18  2  0  0  0  0
  3 23  1  0  0  0  0
  4 16  1  0  0  0  0
  4 19  1  0  0  0  0
  4 21  2  0  0  0  0
  5  6  1  0  0  0  0
  5 10  1  0  0  0  0
  5 26  1  0  0  0  0
  5 27  1  0  0  0  0
  6 16  1  0  0  0  0
  6 28  1  0  0  0  0
  6 29  1  0  0  0  0
  7 11  1  0  0  0  0
  7 16  1  0  0  0  0
  7 30  1  0  0  0  0
  7 31  1  0  0  0  0
  8 13  1  0  0  0  0
  8 15  1  0  0  0  0
  8 32  1  0  0  0  0
  8 33  1  0  0  0  0
  9 14  1  0  0  0  0
  9 15  1  0  0  0  0
  9 34  1  0  0  0  0
  9 35  1  0  0  0  0
 10 19  1  0  0  0  0
 10 36  1  0  0  0  0
 10 37  1  0  0  0  0
 11 20  1  0  0  0  0
 11 38  1  0  0  0  0
 11 39  1  0  0  0  0
 12 16  1  0  0  0  0
 12 20  1  0  0  0  0
 12 40  1  0  0  0  0
 12 41  1  0  0  0  0
 13 22  1  0  0  0  0
 13 42  1  0  0  0  0
 13 43  1  0  0  0  0
 14 22  1  0  0  0  0
 14 44  1  0  0  0  0
 14 45  1  0  0  0  0
 15 19  1  0  0  0  0
 15 46  1  0  0  0  0
 17 20  1  0  0  0  0
 17 47  1  0  0  0  0
 17 48  1  0  0  0  0
M  END
$$$$
