37
0 1 C13H14N4O4S2
C                     1.315281032799    -6.673293653568    -1.538298095601
C                     0.651188599989    -5.498290572388    -1.881489106861
C                     2.398747669799    -6.590086987861    -0.659120378990
C                    -1.611190869927    -0.819784115344    -3.830860341334
C                     1.107125774373    -4.283406257105    -1.361553457582
C                    -1.293086303396    -2.100194290873    -3.508299340675
C                     2.207477551272    -4.305217999793    -0.477886704234
C                    -2.324288488596    -3.127023657234    -3.404670720971
C                    -3.962968902801    -1.333936460972    -3.978223504837
C                     0.444010710704    -2.011377378338    -0.649844516333
C                     1.856046494118    -1.528750727992    -0.331230881326
C                    -3.230171588235     0.957209971134    -4.416537077815
C                    -4.759161546661    -3.583476006799    -3.572041196374
N                     2.826760162775    -5.440098303932    -0.130894046850
N                    -2.891773440808    -0.427199893744    -4.059645187020
N                    -3.631753907375    -2.641472382031    -3.649029066754
N                     0.425726077002    -3.064481319269    -1.675323099654
O                    -2.126098732443    -4.302677012538    -3.128596694702
O                    -5.111207507733    -0.969701469072    -4.186830701768
O                     0.790228869614    -3.630704437839    -4.144774729249
O                     1.140336597441    -1.232568126472    -3.373230567184
S                     2.890011746372    -2.882347948002     0.342389551207
S                     0.424762985062    -2.515401446783    -3.283952609004
H                     0.994377923174    -7.632824431903    -1.932056291551
H                    -0.209399576303    -5.495086457295    -2.540207295296
H                     2.945757358703    -7.482940405755    -0.360841394324
H                    -0.836427812849    -0.064557275447    -3.916732017560
H                    -0.038865515490    -2.424533453963     0.240466697199
H                    -0.166207534398    -1.174704133099    -1.000133122223
H                     2.315357464267    -1.110641844723    -1.227678327958
H                     1.827339794629    -0.759459992994     0.445939672764
H                    -3.712075096755     0.982183759327    -5.395429391934
H                    -2.310535617399     1.541850758556    -4.441078951569
H                    -3.917690325738     1.374760112062    -3.678975750158
H                    -5.480937962632    -3.231162917071    -2.833045745559
H                    -4.358646487995    -4.552874310247    -3.286011436443
H                    -5.253575487080    -3.645903889026    -4.543450262095
