35
0 1 C13H15N5O2
C                     0.192705638714    -4.668105484260     1.702578244887
C                    -0.420673482411    -2.237373190242     0.763345439621
C                     0.041173336682    -0.235076027164     4.189171601828
C                    -0.632218988723    -1.198178926299    -0.218067573099
C                    -0.113698565684     0.309885439012     5.506639316572
C                     1.355895336092    -0.619746250117     4.144335713252
C                    -0.803556986138    -2.610601226040     2.084598009696
C                     0.328039609364    -3.194953172665     0.065124320579
C                    -1.447971514569     0.059975071770    -0.162055472417
C                    -1.342376911567     0.896966251969     6.131687345537
C                     2.193826038678    -1.281994219884     3.103967734255
C                    -2.000253999285    -2.379149851099     4.183792102723
C                    -0.999828660115    -0.390395978582     3.114149029704
N                    -0.515174668374    -3.857010395215     2.504909270307
N                     0.687470481833    -4.405635101215     0.488381717100
N                    -0.032585933575    -1.498947832620    -1.346901720684
N                     1.011811909801     0.261332503873     6.187265245734
N                    -1.474241601716    -1.780649806693     2.954163730285
O                     1.950036219723    -0.333603701355     5.322627064577
O                     0.602450267614    -2.753995015410    -1.178024016290
H                     0.401618387858    -5.658931940420     2.101496976996
H                    -0.900633069031     0.878078075784     0.316543927684
H                    -1.695670053365     0.374056272217    -1.177934553591
H                    -2.372221730762    -0.104530491132     0.397979283806
H                    -2.137510476033     0.148970269399     6.214138272103
H                    -1.110635462846     1.267147454724     7.132213381838
H                    -1.728209890313     1.728663823817     5.532985039018
H                     3.235704379394    -0.965715335897     3.196232987749
H                     2.156134862671    -2.371421847658     3.209686582774
H                     1.834808067312    -1.032447990064     2.102950939008
H                    -2.708204829819    -1.671331785835     4.623806350713
H                    -1.213162907109    -2.602818870808     4.912352935667
H                    -2.521521190720    -3.305291976363     3.945345793531
H                    -1.863304858077     0.244254664092     3.335238120007
H                    -0.593649950057    -0.055466175012     2.164554003300
