30
0 1 C13ClH11N2O3
C                    -1.823915933408    -4.270722477335    -1.714229610503
C                    -1.283225742255    -3.002568247092    -1.512753976086
C                    -3.108502576571    -4.604650225647    -1.266611059537
C                    -3.339944124692    -2.343629878603    -0.383333463109
C                     3.027798056511     3.124239883475    -1.280712335717
C                     1.390080316196     1.290774497500    -1.199167545747
C                    -2.048175758306    -2.031031972461    -0.841489842670
C                     1.756300347065     2.593428541828    -0.907394228666
C                    -3.845309117605    -3.622588436375    -0.604070576483
C                     3.904052333622     2.323080048934    -1.943460938876
C                     2.338522487712     0.441635207746    -1.910158023097
C                     0.081980361023     0.797734385788    -0.796801758580
C                     5.270824050012     2.711723196798    -2.407626713050
N                    -0.321147430744    -0.405765390905    -1.035962711012
N                    -1.550685514966    -0.749191446807    -0.616363193750
O                     2.211858794611    -0.708491067549    -2.254107006627
O                     3.588613470831     1.051365757839    -2.247000976912
O                     0.864542939842     3.383653733660    -0.241693123594
Cl                   -5.464714569418    -4.000224587131    -0.024795058590
H                    -1.233127392698    -5.021291510007    -2.232746805560
H                    -0.289114085179    -2.745552310520    -1.859695477909
H                    -3.524523019645    -5.593486663280    -1.426179044515
H                    -3.941215877616    -1.602577055586     0.136515797990
H                     3.301867189082     4.147799881901    -1.045238256163
H                    -0.555725687364     1.516024582295    -0.269496279455
H                     6.022802360973     2.058117241226    -1.953278906543
H                     5.492625735640     3.747875586090    -2.144968170463
H                     5.347936779755     2.592904402384    -3.493447887006
H                    -2.135697414366    -0.072301312957    -0.126323448030
H                     1.249064765630     4.264091998013    -0.105247335749
