30
0 1 C13ClH11N2O3
C                    -3.356559955725    -3.654955957349     0.437073763691
C                    -2.954326981455    -2.322004760842     0.424903322859
C                    -2.551438377787    -4.660550664645    -0.109457072754
C                    -0.894019004786    -2.962073056297    -0.698079273091
C                     3.568797758123     1.333649302959    -2.140895437438
C                     1.389840186161     1.573988135069    -1.051966606811
C                    -1.716658332812    -1.965919441951    -0.144673017067
C                     2.349448647710     0.766627470766    -1.659715081327
C                    -1.329004984461    -4.285906661759    -0.668690993354
C                     3.776298598968     2.667717544932    -1.996493285018
C                     1.630898503482     2.994694476497    -0.907203497324
C                     0.135263071488     1.062072928432    -0.543896968007
C                     4.989172839909     3.418861290514    -2.440866127563
N                    -0.157464309770    -0.199887869946    -0.631496804708
N                    -1.348128808550    -0.625321274909    -0.148317915609
O                     0.887541325383     3.812760385188    -0.400219327982
O                     2.858482103427     3.473425710517    -1.408902445774
O                     2.183902357279    -0.549629232516    -1.820948741536
Cl                   -0.291195497901    -5.522227390211    -1.363856743726
H                    -4.313197372992    -3.918974136110     0.879393795541
H                    -3.594615710969    -1.554565812699     0.854080116826
H                    -2.860999870386    -5.699769238990    -0.101983587676
H                     0.061159052861    -2.714122232267    -1.141330609205
H                     4.309081760738     0.698787365116    -2.611988395305
H                    -0.546036325634     1.786117355594    -0.087973160640
H                     4.708310183225     4.199920815551    -3.155187547907
H                     5.710480923465     2.747475991391    -2.909712685836
H                     5.461453954075     3.912663713748    -1.585118372258
H                    -1.956854996173     0.049081038120     0.309059499222
H                     1.295577828457    -0.789411401950    -1.438985355267
