50
0 1 C22F4H19NO4
C                     3.540896365805     3.469195076303    -3.536867951371
C                     2.288979086296    -0.762227261716     0.165234557428
C                     3.816607757514     3.772000071319    -4.867616807579
C                     2.498066590923    -2.137862987432     0.216772480669
C                     1.761906593313     1.494351706291    -6.790128737248
C                     1.937289780080     1.736240572535    -4.169413124926
C                     2.420662956592     2.209395903329    -7.740320511501
C                     2.208791069652     2.016204479936    -5.516930797300
C                     2.602516244944     2.472344091061    -3.182479613835
C                     0.991836073360    -0.232053340477     0.111637637411
C                    -0.145581101036    -1.062566264470     0.107427392396
C                     3.134543905702     3.031941434694    -5.829384216896
C                     0.076053327550    -2.454324945567     0.179354455354
C                     1.378905712789    -2.950378996665     0.223243016179
C                     2.399831636397     2.228301177230    -1.716301672664
C                    -1.592108565082     1.023113494571    -0.143128438749
C                     0.899716063135     1.282118153186     0.007596751617
C                    -1.576861413861    -0.509058962058     0.084847189146
C                    -0.452499951438     1.793357722236     0.525985727037
C                    -2.279099834616    -0.852960250846     1.421688324994
C                    -2.392654966817    -1.113058136660    -1.083739761233
C                    -0.626315646514     3.311706704845     0.274849557829
N                     1.173553357878     1.728140356428    -1.354158634696
O                     3.277928720226     2.478259778975    -0.888882974824
O                     3.263716438543     3.152520240761    -7.189490792857
O                    -0.973919323655    -3.339720769575     0.219718648330
O                    -0.396139091223     1.607781227697     1.935247060795
F                     1.511313142960    -4.314414491161     0.289136083075
F                    -1.672023203486     3.773511412016     1.024579738787
F                     0.458321175927     4.021050864267     0.626383524075
F                    -0.921195403158     3.612684953671    -1.012695037772
H                     4.049732512507     3.993946010654    -2.735260829792
H                     3.136904919788    -0.083997441672     0.163226546876
H                     4.531000108773     4.540812091446    -5.144978417253
H                     3.490490940004    -2.575200053828     0.260777942031
H                     1.048784891789     0.700689677812    -6.970102710946
H                     1.256889312161     0.927850600348    -3.913895479541
H                     2.408837211211     2.180093408510    -8.820977222803
H                    -1.546953455645     1.227340940443    -1.217769061346
H                    -2.558480080720     1.417278532545     0.189993520840
H                     1.679580166269     1.729551201081     0.623858443887
H                    -3.283958969714    -0.414712772101     1.440710081383
H                    -1.710893799077    -0.470497892802     2.271944887760
H                    -2.381208980169    -1.933167981744     1.537073796499
H                    -3.369768367073    -0.619816731229    -1.142771976800
H                    -2.556647989840    -2.182050618050    -0.954356324816
H                    -1.878474336666    -0.957604864335    -2.038937520148
H                     0.508947088704     1.499910210170    -2.079502255412
H                    -0.604120192138    -4.237482586563     0.283787990638
H                    -1.252239860645     1.867445447496     2.313938269198
