
  -OEChem-05262117483D

 51 53  0     0  0  0  0  0  0999 V2000
    1.6197    3.1694    2.7907 C   0  0  0  0  0  0  0  0  0  0  0  0
   -0.0107    4.2019    1.3415 C   0  0  0  0  0  0  0  0  0  0  0  0
    1.3400    4.1058    3.7895 C   0  0  0  0  0  0  0  0  0  0  0  0
   -0.3063    5.1475    2.3278 C   0  0  0  0  0  0  0  0  0  0  0  0
    0.9549    3.2079    1.5570 C   0  0  0  0  0  0  0  0  0  0  0  0
    1.2495    2.2004    0.4927 C   0  0  0  0  0  0  0  0  0  0  0  0
    0.6109    0.9565    0.5224 C   0  0  0  0  0  0  0  0  0  0  0  0
    2.1537    2.4970   -0.5512 C   0  0  0  0  0  0  0  0  0  0  0  0
    0.3801    5.0809    3.5358 C   0  0  0  0  0  0  0  0  0  0  0  0
    0.8973    0.0462   -0.5155 C   0  0  0  0  0  0  0  0  0  0  0  0
    2.3677    1.5171   -1.5419 C   0  0  0  0  0  0  0  0  0  0  0  0
   -0.8687   -1.4617    0.2250 C   0  0  0  0  0  0  0  0  0  0  0  0
    0.2179   -1.2671   -0.5472 C   0  0  0  0  0  0  0  0  0  0  0  0
   -0.3195    0.5191    1.6290 C   0  0  0  0  0  0  0  0  0  0  0  0
   -1.4546   -0.3950    1.1301 C   0  0  0  0  0  0  0  0  0  0  0  0
    0.7398   -2.3077   -1.5031 C   0  0  0  0  0  0  0  0  0  0  0  0
   -2.4871    0.4292    0.3271 C   0  0  0  0  0  0  0  0  0  0  0  0
   -2.1504   -1.0465    2.3366 C   0  0  0  0  0  0  0  0  0  0  0  0
    2.4380    1.7823   -4.0296 C   0  0  0  0  0  0  0  0  0  0  0  0
    4.3532    0.6368   -2.8162 C   0  0  0  0  0  0  0  0  0  0  0  0
    2.8609    3.8346   -0.6055 C   0  0  0  0  0  0  0  0  0  0  0  0
    3.2785    1.7341   -2.7407 C   0  0  0  0  0  0  0  0  0  0  0  0
    1.7530    0.3263   -1.5086 N   0  0  0  0  0  0  0  0  0  0  0  0
    2.3684    4.6878   -1.6534 O   0  0  0  0  0  0  0  0  0  0  0  0
    0.1017    5.9949    4.5005 F   0  0  0  0  0  0  0  0  0  0  0  0
    2.3663    2.4005    2.9699 H   0  0  0  0  0  0  0  0  0  0  0  0
   -0.5513    4.2265    0.3986 H   0  0  0  0  0  0  0  0  0  0  0  0
    1.8511    4.0880    4.7472 H   0  0  0  0  0  0  0  0  0  0  0  0
   -1.0524    5.9207    2.1721 H   0  0  0  0  0  0  0  0  0  0  0  0
   -1.4087   -2.4062    0.1589 H   0  0  0  0  0  0  0  0  0  0  0  0
    0.2712   -0.0347    2.3736 H   0  0  0  0  0  0  0  0  0  0  0  0
   -0.7406    1.3842    2.1487 H   0  0  0  0  0  0  0  0  0  0  0  0
    1.7946   -2.5267   -1.3060 H   0  0  0  0  0  0  0  0  0  0  0  0
    0.6888   -1.9460   -2.5347 H   0  0  0  0  0  0  0  0  0  0  0  0
    0.1649   -3.2342   -1.4209 H   0  0  0  0  0  0  0  0  0  0  0  0
   -2.9587    1.1844    0.9676 H   0  0  0  0  0  0  0  0  0  0  0  0
   -3.2753   -0.2172   -0.0730 H   0  0  0  0  0  0  0  0  0  0  0  0
   -2.0115    0.9399   -0.5159 H   0  0  0  0  0  0  0  0  0  0  0  0
   -2.5598   -0.2840    3.0090 H   0  0  0  0  0  0  0  0  0  0  0  0
   -1.4511   -1.6651    2.9095 H   0  0  0  0  0  0  0  0  0  0  0  0
   -2.9791   -1.6862    2.0127 H   0  0  0  0  0  0  0  0  0  0  0  0
    1.8981    0.8407   -4.1683 H   0  0  0  0  0  0  0  0  0  0  0  0
    3.0833    1.9457   -4.8998 H   0  0  0  0  0  0  0  0  0  0  0  0
    1.7103    2.5989   -3.9882 H   0  0  0  0  0  0  0  0  0  0  0  0
    3.8882   -0.3473   -2.9212 H   0  0  0  0  0  0  0  0  0  0  0  0
    4.9726    0.6240   -1.9122 H   0  0  0  0  0  0  0  0  0  0  0  0
    5.0107    0.8058   -3.6761 H   0  0  0  0  0  0  0  0  0  0  0  0
    2.7875    4.3426    0.3610 H   0  0  0  0  0  0  0  0  0  0  0  0
    3.9229    3.7045   -0.8232 H   0  0  0  0  0  0  0  0  0  0  0  0
    3.7743    2.7014   -2.6427 H   0  0  0  0  0  0  0  0  0  0  0  0
    1.4216    4.8261   -1.4920 H   0  0  0  0  0  0  0  0  0  0  0  0
  1  3  1  0  0  0  0
  1  5  2  0  0  0  0
  1 26  1  0  0  0  0
  2  4  2  0  0  0  0
  2  5  1  0  0  0  0
  2 27  1  0  0  0  0
  3  9  2  0  0  0  0
  3 28  1  0  0  0  0
  4  9  1  0  0  0  0
  4 29  1  0  0  0  0
  5  6  1  0  0  0  0
  6  7  1  0  0  0  0
  6  8  2  0  0  0  0
  7 10  2  0  0  0  0
  7 14  1  0  0  0  0
  8 11  1  0  0  0  0
  8 21  1  0  0  0  0
  9 25  1  0  0  0  0
 10 13  1  0  0  0  0
 10 23  1  0  0  0  0
 11 22  1  0  0  0  0
 11 23  2  0  0  0  0
 12 13  2  0  0  0  0
 12 15  1  0  0  0  0
 12 30  1  0  0  0  0
 13 16  1  0  0  0  0
 14 15  1  0  0  0  0
 14 31  1  0  0  0  0
 14 32  1  0  0  0  0
 15 17  1  0  0  0  0
 15 18  1  0  0  0  0
 16 33  1  0  0  0  0
 16 34  1  0  0  0  0
 16 35  1  0  0  0  0
 17 36  1  0  0  0  0
 17 37  1  0  0  0  0
 17 38  1  0  0  0  0
 18 39  1  0  0  0  0
 18 40  1  0  0  0  0
 18 41  1  0  0  0  0
 19 22  1  0  0  0  0
 19 42  1  0  0  0  0
 19 43  1  0  0  0  0
 19 44  1  0  0  0  0
 20 22  1  0  0  0  0
 20 45  1  0  0  0  0
 20 46  1  0  0  0  0
 20 47  1  0  0  0  0
 21 24  1  0  0  0  0
 21 48  1  0  0  0  0
 21 49  1  0  0  0  0
 22 50  1  0  0  0  0
 24 51  1  0  0  0  0
M  END
$$$$
