27
0 1 C9H14O3S
C                     0.936462170978     0.568123108178    -0.054866283851
C                     0.301676312943    -0.404372824033    -0.770203666231
C                     1.562466587207     1.693037597829    -0.720056362490
C                     0.274159579539    -1.405421380496     1.430468285104
C                    -0.407739084315    -1.452049057815     0.048657717519
C                    -1.915588317923    -1.138796083204     0.103353976732
C                     5.046015769978     2.924636737327     0.342787450135
C                     4.206587543512     3.398600047636    -0.848539335091
C                     2.767306579271     3.738036022701    -0.476363007249
O                     1.595597382806     1.806398950627    -1.956538093108
O                     0.199178846569    -0.461049830588    -2.103763585867
O                     2.086388406704     2.600131592513     0.120874764297
S                     0.844713119269     0.333518487949     1.715520157300
H                    -0.402379953241    -1.690812995045     2.238501369597
H                     1.152070546452    -2.056860212513     1.451234103744
H                    -0.261842900584    -2.437009372924    -0.407810232191
H                    -2.089889808262    -0.180154216748     0.601743339779
H                    -2.445643703465    -1.919321869523     0.658637891085
H                    -2.335261914703    -1.088204884452    -0.905038236472
H                     5.094421286930     3.692241566650     1.123883282021
H                     4.620650835255     2.021527865089     0.790366106432
H                     6.070706064468     2.697814964465     0.031626424165
H                     4.198105531339     2.642065679645    -1.639496056207
H                     4.647541710772     4.303918483441    -1.285526932857
H                     2.729135894626     4.503246753779     0.302610374221
H                     2.199235187582     4.071960738827    -1.346892846382
H                     0.672251403463     0.340749953829    -2.451748095972
