27
0 1 C9H14O3S
C                     0.659537005500     0.856350350561    -0.024557680277
C                     0.218311423249    -0.232219597373    -0.699072189458
C                     1.236430268134     2.063241703374    -0.633726000750
C                     0.074237339533    -1.065881977745     1.572882170574
C                    -0.463300310138    -1.287558576463     0.149284013276
C                    -1.994621516431    -1.139045188084     0.051921936559
C                     2.789078755379     6.533449309756     0.610411352450
C                     2.188825583918     5.184545843979     1.023291435700
C                     2.023272779315     4.258593566330    -0.171212958133
O                     1.486358595651     2.213819946521    -1.817472258933
O                     0.256623937970    -0.366229106259    -2.048680561614
O                     1.456694069535     3.017834517485     0.309518338197
S                     0.402057065182     0.740766987947     1.747677928303
H                    -0.635859706765    -1.379917277361     2.340920808791
H                     1.017483969818    -1.600704588485     1.715615366864
H                    -0.177225882358    -2.292160875402    -0.192792550779
H                    -2.306370336571    -0.170465172524     0.453435504995
H                    -2.492942176401    -1.929791201419     0.621855434059
H                    -2.337826275715    -1.202752821893    -0.985932175515
H                     3.777227331432     6.407622155865     0.153462131942
H                     2.150435179603     7.049470587582    -0.115486650187
H                     2.905176885709     7.190880867304     1.477616006036
H                     1.211670055863     5.333400842706     1.496430758883
H                     2.829213565910     4.695870507611     1.766123590630
H                     1.355276743808     4.684456964818    -0.926813344222
H                     2.981223270454     4.045576359986    -0.656376986744
H                    -0.060771689851    -1.253184389048    -2.282325042712
