27
0 1 C9H14O3S
C                     0.493120017470    -0.235125193018    -0.176459120455
C                     1.289017618577     1.861270457457     0.916328195220
C                    -0.712283622408    -0.481060497473     1.977641045257
C                     1.493010956451     0.358567996109     0.835849009399
C                    -0.755163724931    -0.822201439176     0.485064458628
C                    -2.033118078986    -0.366661391122    -0.228480849253
C                     3.762666930520     6.021353685441     1.568193395899
C                     3.764465074682     4.496777938095     1.405376707356
C                     2.354883202412     3.956085640817     1.234915487785
O                     0.711950309558    -0.244973202076    -1.369547541908
O                     0.195372136219     2.396659562984     0.852811816638
O                     2.450780230854     2.511577675760     1.087922568410
S                     1.070880395174    -0.411762201685     2.448216981114
H                    -1.174522937530     0.488327079553     2.175506204109
H                    -1.191494439150    -1.241951861903     2.596866574415
H                     2.518152729061     0.116869104483     0.555474592778
H                    -0.643704330280    -1.909205467076     0.373873208653
H                    -2.154913437001     0.716403150574    -0.134715960461
H                    -2.911720273046    -0.856308497935     0.203074336979
H                    -1.980765180506    -0.617565367954    -1.291106021730
H                     3.326362839206     6.516048571333     0.693237047608
H                     3.185804497750     6.328743291890     2.447632515468
H                     4.781972920976     6.399785025499     1.690227952596
H                     4.225264339861     4.023080131867     2.279318083173
H                     4.363940969489     4.210106963554     0.534178766119
H                     1.723561121435     4.174587488485     2.101417632165
H                     1.863357500626     4.363696420825     0.346735292047
