19
0 1 BrC9H6NO2
C                     4.272366604470    -1.804138903554     2.517461586582
C                     1.591014507074    -1.002021014840    -0.015569139678
C                     0.549090313152    -0.641990769803     0.835772612085
C                     1.992799781549    -1.059317164023     2.743841025505
C                     3.040707101728    -1.421443146609     1.877884780336
C                     2.841660306040    -1.393855381748     0.478383374089
C                     0.763156115890    -0.674892944972     2.215764387014
C                     3.874790892371    -1.755710626690    -0.544140474192
C                     6.097366970152    -2.478401191001    -0.909066857285
N                     5.209597352428    -2.092294786390     3.145974218121
O                     3.665669388109    -1.724587275424    -1.744462012558
O                     5.043796654762    -2.112909493185     0.007752271508
Br                   -0.650036612952    -0.186017013399     3.402961335703
H                     1.452075458466    -0.985749350080    -1.091457429843
H                    -0.413089658593    -0.340808687208     0.435104107904
H                     2.152614087935    -1.082969221005     3.815903464981
H                     6.948021363053    -2.731782611488    -0.278026145123
H                     6.333812756650    -1.637227986807    -1.564229837424
H                     5.789709885791    -3.335004758149    -1.512602885409
