
  -OEChem-05262117483D

 40 43  0     0  0  0  0  0  0999 V2000
   -2.4202    0.0420    4.6919 C   0  0  0  0  0  0  0  0  0  0  0  0
   -2.1567   -8.6584    0.5390 C   0  0  0  0  0  0  0  0  0  0  0  0
   -2.1509   -8.0045   -0.6982 C   0  0  0  0  0  0  0  0  0  0  0  0
   -1.7997   -7.9598    1.6966 C   0  0  0  0  0  0  0  0  0  0  0  0
   -1.8057   -6.6547   -0.7804 C   0  0  0  0  0  0  0  0  0  0  0  0
   -1.4392   -6.6122    1.6245 C   0  0  0  0  0  0  0  0  0  0  0  0
   -1.3748   -0.9121    4.5267 C   0  0  0  0  0  0  0  0  0  0  0  0
   -0.8882   -2.3866    0.5246 C   0  0  0  0  0  0  0  0  0  0  0  0
   -0.8247   -1.6991    5.5893 C   0  0  0  0  0  0  0  0  0  0  0  0
   -1.4590   -5.9644    0.3855 C   0  0  0  0  0  0  0  0  0  0  0  0
    0.1876   -2.5168    5.1815 C   0  0  0  0  0  0  0  0  0  0  0  0
   -0.1420   -2.8690   -0.5953 C   0  0  0  0  0  0  0  0  0  0  0  0
   -0.7815   -1.1830    3.2947 C   0  0  0  0  0  0  0  0  0  0  0  0
   -1.4989   -3.5298    1.0377 C   0  0  0  0  0  0  0  0  0  0  0  0
   -1.0230   -0.9939    0.9477 C   0  0  0  0  0  0  0  0  0  0  0  0
   -1.0978   -1.8592    7.0626 C   0  0  0  0  0  0  0  0  0  0  0  0
    0.7652   -3.3522    6.2913 C   0  0  0  0  0  0  0  0  0  0  0  0
    0.1536   -2.6543    7.5471 C   0  0  0  0  0  0  0  0  0  0  0  0
    0.7235   -2.0759   -1.5241 C   0  0  0  0  0  0  0  0  0  0  0  0
   -3.2791    0.8108    4.8719 N   0  0  0  0  0  0  0  0  0  0  0  0
   -0.2588   -4.1867   -0.7251 N   0  0  0  0  0  0  0  0  0  0  0  0
   -1.0568   -0.4992    2.1367 N   0  0  0  0  0  0  0  0  0  0  0  0
   -1.0957   -4.5904    0.2847 N   0  0  0  0  0  0  0  0  0  0  0  0
    0.4913   -2.4102    3.4754 S   0  0  0  0  0  0  0  0  0  0  0  0
   -2.6829   -3.6469    2.2762 Cl  0  0  0  0  0  0  0  0  0  0  0  0
   -2.4314   -9.7079    0.5994 H   0  0  0  0  0  0  0  0  0  0  0  0
   -2.4210   -8.5444   -1.6015 H   0  0  0  0  0  0  0  0  0  0  0  0
   -1.7869   -8.4659    2.6579 H   0  0  0  0  0  0  0  0  0  0  0  0
   -1.7936   -6.1321   -1.7309 H   0  0  0  0  0  0  0  0  0  0  0  0
   -1.1335   -6.0751    2.5159 H   0  0  0  0  0  0  0  0  0  0  0  0
   -1.1234   -0.2655    0.1394 H   0  0  0  0  0  0  0  0  0  0  0  0
   -1.2104   -0.9041    7.5846 H   0  0  0  0  0  0  0  0  0  0  0  0
   -2.0258   -2.4224    7.2231 H   0  0  0  0  0  0  0  0  0  0  0  0
    0.4380   -4.3969    6.2060 H   0  0  0  0  0  0  0  0  0  0  0  0
    1.8598   -3.3580    6.3128 H   0  0  0  0  0  0  0  0  0  0  0  0
    0.8874   -1.9503    7.9503 H   0  0  0  0  0  0  0  0  0  0  0  0
   -0.0868   -3.3687    8.3388 H   0  0  0  0  0  0  0  0  0  0  0  0
    1.5445   -1.5932   -0.9840 H   0  0  0  0  0  0  0  0  0  0  0  0
    1.1459   -2.7333   -2.2867 H   0  0  0  0  0  0  0  0  0  0  0  0
    0.1490   -1.2871   -2.0223 H   0  0  0  0  0  0  0  0  0  0  0  0
  1  7  1  0  0  0  0
  1 20  3  0  0  0  0
  2  3  1  0  0  0  0
  2  4  2  0  0  0  0
  2 26  1  0  0  0  0
  3  5  2  0  0  0  0
  3 27  1  0  0  0  0
  4  6  1  0  0  0  0
  4 28  1  0  0  0  0
  5 10  1  0  0  0  0
  5 29  1  0  0  0  0
  6 10  2  0  0  0  0
  6 30  1  0  0  0  0
  7  9  1  0  0  0  0
  7 13  2  0  0  0  0
  8 12  1  0  0  0  0
  8 14  2  0  0  0  0
  8 15  1  0  0  0  0
  9 11  2  0  0  0  0
  9 16  1  0  0  0  0
 10 23  1  0  0  0  0
 11 17  1  0  0  0  0
 11 24  1  0  0  0  0
 12 19  1  0  0  0  0
 12 21  2  0  0  0  0
 13 22  1  0  0  0  0
 13 24  1  0  0  0  0
 14 23  1  0  0  0  0
 14 25  1  0  0  0  0
 15 22  2  0  0  0  0
 15 31  1  0  0  0  0
 16 18  1  0  0  0  0
 16 32  1  0  0  0  0
 16 33  1  0  0  0  0
 17 18  1  0  0  0  0
 17 34  1  0  0  0  0
 17 35  1  0  0  0  0
 18 36  1  0  0  0  0
 18 37  1  0  0  0  0
 19 38  1  0  0  0  0
 19 39  1  0  0  0  0
 19 40  1  0  0  0  0
 21 23  1  0  0  0  0
M  END
$$$$
