
  -OEChem-05262117483D

 20 20  0     0  0  0  0  0  0999 V2000
    5.0148    0.4748   -0.0111 C   0  0  0  0  0  0  0  0  0  0  0  0
    1.6323   -1.3695   -0.1151 C   0  0  0  0  0  0  0  0  0  0  0  0
    0.7158   -0.7836    0.7603 C   0  0  0  0  0  0  0  0  0  0  0  0
    2.3042   -1.0429    2.5861 C   0  0  0  0  0  0  0  0  0  0  0  0
    2.8862   -1.7867    0.3369 C   0  0  0  0  0  0  0  0  0  0  0  0
    3.1967   -1.6152    1.6892 C   0  0  0  0  0  0  0  0  0  0  0  0
    1.0620   -0.6269    2.1042 C   0  0  0  0  0  0  0  0  0  0  0  0
    5.5593   -0.6782   -0.7411 C   0  0  0  0  0  0  0  0  0  0  0  0
    4.4862   -1.5527   -1.4161 C   0  0  0  0  0  0  0  0  0  0  0  0
    4.5848    1.4012    0.5449 N   0  0  0  0  0  0  0  0  0  0  0  0
    3.7957   -2.4034   -0.4979 O   0  0  0  0  0  0  0  0  0  0  0  0
    4.4161   -1.9974    2.1318 F   0  0  0  0  0  0  0  0  0  0  0  0
   -0.0816    0.1040    3.2134 Cl  0  0  0  0  0  0  0  0  0  0  0  0
    1.3747   -1.5152   -1.1604 H   0  0  0  0  0  0  0  0  0  0  0  0
   -0.2571   -0.4601    0.4064 H   0  0  0  0  0  0  0  0  0  0  0  0
    2.5879   -0.9149    3.6250 H   0  0  0  0  0  0  0  0  0  0  0  0
    6.2377   -0.2947   -1.5114 H   0  0  0  0  0  0  0  0  0  0  0  0
    6.1465   -1.2925   -0.0525 H   0  0  0  0  0  0  0  0  0  0  0  0
    4.9808   -2.2335   -2.1120 H   0  0  0  0  0  0  0  0  0  0  0  0
    3.7797   -0.9286   -1.9754 H   0  0  0  0  0  0  0  0  0  0  0  0
  1  8  1  0  0  0  0
  1 10  3  0  0  0  0
  2  3  1  0  0  0  0
  2  5  2  0  0  0  0
  2 14  1  0  0  0  0
  3  7  2  0  0  0  0
  3 15  1  0  0  0  0
  4  6  2  0  0  0  0
  4  7  1  0  0  0  0
  4 16  1  0  0  0  0
  5  6  1  0  0  0  0
  5 11  1  0  0  0  0
  6 12  1  0  0  0  0
  7 13  1  0  0  0  0
  8  9  1  0  0  0  0
  8 17  1  0  0  0  0
  8 18  1  0  0  0  0
  9 11  1  0  0  0  0
  9 19  1  0  0  0  0
  9 20  1  0  0  0  0
M  END
$$$$
