20
0 1 C9ClFH7NO
C                     2.226850379697    -4.703706680166     0.618607762390
C                     2.124013303265    -0.896466142463     0.032281794265
C                     1.152199305850    -0.292917234166     0.832880658629
C                     2.165524614848    -1.295588052161     2.805918126742
C                     3.112418572599    -1.706158816648     0.595962898977
C                     3.113508026765    -1.887978380537     1.982233880104
C                     1.184031230694    -0.498934399699     2.213748110714
C                     3.502035147234    -4.686971001078    -0.110988051218
C                     3.723332902695    -3.415253794217    -0.951252187173
N                     1.206509720792    -4.725282118771     1.175912694471
O                     4.107022629070    -2.283458699051    -0.167022562554
F                     4.054542193591    -2.687056844689     2.534472025061
Cl                   -0.028188275159     0.256084293634     3.229901877195
H                     2.125676591907    -0.734689435308    -1.041965887794
H                     0.385277453802     0.335069548687     0.392345806099
H                     2.191801904097    -1.471685924502     3.875705151838
H                     4.323684268280    -4.797187697135     0.602519880876
H                     3.516469741556    -5.556896440460    -0.777197468043
H                     2.832089178374    -3.191255710951    -1.548640890643
H                     4.564334642889    -3.587511390497    -1.626156355993
