35
0 1 C15H14N4O2
C                     3.175645761126     1.329344716230    -1.110138792991
C                    -2.131574647635    -4.232803400579    -5.229030517640
C                    -3.973076319819    -4.496869226455    -3.696868813891
C                    -1.505627588924    -3.353770667940    -4.352916054440
C                    -3.357924285702    -3.616227736887    -2.806406589058
C                     1.915187900111     0.692498252721    -0.878494654667
C                    -3.374638321442    -4.819886039197    -4.922587482219
C                     1.364993453416    -0.169491068407    -1.809911200318
C                    -2.121022007371    -3.037926709411    -3.127097794961
C                     0.104875445881    -0.777332963868    -1.527176023616
C                     1.262931177089     1.011728151632     0.388387534105
C                    -0.545003689225    -0.478925225094    -0.299143273930
C                    -4.047836407060    -5.749834123380    -5.902737296018
C                     2.052066120989    -0.485987894028    -3.109596867417
C                    -0.719235740931     0.633929665184     1.856724042035
N                     4.204483095705     1.831534375999    -1.330069662550
N                    -1.565259478689    -2.161898618516    -2.175094668284
N                    -0.432492581327    -1.633126614711    -2.461289669091
N                     0.003498930300     0.365680640539     0.603159216907
O                     1.712679634577     1.767610155250     1.240026540583
O                    -1.704994097607    -1.009064416431     0.013619063447
H                    -1.649114936825    -4.474653938518    -6.173731612656
H                    -4.930627610254    -4.939493545785    -3.433372853661
H                    -0.547620179485    -2.908283087142    -4.597370869229
H                    -3.827354208932    -3.371946730353    -1.856974168228
H                    -3.326832600400    -6.431283690411    -6.365149091160
H                    -4.821931462578    -6.351060372355    -5.418245804015
H                    -4.525485764731    -5.183955832556    -6.711821543414
H                     2.230578115640    -1.562309326324    -3.188036255010
H                     3.001144950899     0.041907961653    -3.197676212756
H                     1.408971810322    -0.212427417175    -3.951083005846
H                    -0.862029363967    -0.297699794918     2.407579319939
H                    -1.695353764146     1.069387639180     1.634612374982
H                    -0.114592711125     1.328986166920     2.434115419178
H                    -1.945592649892    -1.623845148067    -0.813701937696
