30
1 1 C10H16N3O
C                    -1.473850968391    -1.553626602526     3.170565284188
C                    -1.054121056572    -0.363647557571     2.508993872777
C                    -2.520221848997    -2.253173215229     2.637381096053
C                    -1.665323735331     0.082830066162     1.364097191267
C                    -2.777072930993    -0.659778707191     0.787082286667
C                    -1.734013911252     1.660317147407    -1.769716164129
C                     0.520375644255     1.152351169126    -1.068176982266
C                    -1.584997894483     0.856176669309    -3.050490942757
C                     0.791523115360     0.343602520626    -2.334750501971
C                    -1.269193216778     1.349955872247     0.648563055508
N                    -3.128088980919    -1.813339369042     1.494785351140
N                    -0.885792484662     1.081162821679    -0.747974296888
N                    -0.113693146909     0.842187229440    -3.449286503578
O                    -3.402606861056    -0.346053722383    -0.239335300448
H                    -0.992653170599    -1.898902233323     4.077483306282
H                    -0.231747110917     0.209934918428     2.933317619587
H                    -2.916861949329    -3.163120528141     3.074836126633
H                    -1.514245895980     2.729750872630    -1.964351230579
H                    -2.774625893861     1.567547016519    -1.456434079480
H                     1.109775444043     0.700966098820    -0.265378047773
H                     0.891110133534     2.189223652183    -1.203004329238
H                    -1.880332341354    -0.180059848576    -2.880414604355
H                    -2.141670539174     1.280814271123    -3.888598141818
H                     1.821886533513     0.438409205884    -2.684781737232
H                     0.539640631657    -0.706848221023    -2.182514833466
H                    -0.451149771660     1.844765758930     1.184730506627
H                    -2.112381586000     2.049185269671     0.652115056991
H                    -3.918783140179    -2.322521423011     1.109446465155
H                     0.165483307759     1.798815058016    -3.699354195205
H                     0.019779257691     0.270137996783    -4.290062623776
