
  -OEChem-05262117483D

 35 37  0     0  0  0  0  0  0999 V2000
    2.0329   -0.5600   -0.0855 C   0  0  0  0  0  0  0  0  0  0  0  0
    2.1696   -1.8223    0.5022 C   0  0  0  0  0  0  0  0  0  0  0  0
    1.8104    0.5558    0.7279 C   0  0  0  0  0  0  0  0  0  0  0  0
    0.5858   -0.4248    6.2515 C   0  0  0  0  0  0  0  0  0  0  0  0
    1.4920   -1.1844    6.9967 C   0  0  0  0  0  0  0  0  0  0  0  0
    4.9589   -4.5954    3.8784 C   0  0  0  0  0  0  0  0  0  0  0  0
    6.0001   -3.9227    3.2319 C   0  0  0  0  0  0  0  0  0  0  0  0
    2.0918   -1.9684    1.8885 C   0  0  0  0  0  0  0  0  0  0  0  0
    1.7321    0.4075    2.1146 C   0  0  0  0  0  0  0  0  0  0  0  0
    0.7389   -0.3325    4.8681 C   0  0  0  0  0  0  0  0  0  0  0  0
    2.5407   -1.8349    6.3443 C   0  0  0  0  0  0  0  0  0  0  0  0
    3.9098   -3.8603    4.4321 C   0  0  0  0  0  0  0  0  0  0  0  0
    5.9813   -2.5281    3.1626 C   0  0  0  0  0  0  0  0  0  0  0  0
    1.8770   -0.8546    2.7176 C   0  0  0  0  0  0  0  0  0  0  0  0
    1.7887   -0.9843    4.1967 C   0  0  0  0  0  0  0  0  0  0  0  0
    2.7128   -1.7425    4.9538 C   0  0  0  0  0  0  0  0  0  0  0  0
    3.8718   -2.4588    4.3424 C   0  0  0  0  0  0  0  0  0  0  0  0
    4.9324   -1.7750    3.7109 C   0  0  0  0  0  0  0  0  0  0  0  0
    4.9716   -0.2683    3.6102 C   0  0  0  0  0  0  0  0  0  0  0  0
    2.0993   -0.4474   -1.1646 H   0  0  0  0  0  0  0  0  0  0  0  0
    2.3362   -2.6977   -0.1204 H   0  0  0  0  0  0  0  0  0  0  0  0
    1.7078    1.5431    0.2844 H   0  0  0  0  0  0  0  0  0  0  0  0
   -0.2409    0.0831    6.7416 H   0  0  0  0  0  0  0  0  0  0  0  0
    1.3865   -1.2672    8.0753 H   0  0  0  0  0  0  0  0  0  0  0  0
    4.9624   -5.6801    3.9494 H   0  0  0  0  0  0  0  0  0  0  0  0
    6.8256   -4.4784    2.7943 H   0  0  0  0  0  0  0  0  0  0  0  0
    2.1953   -2.9541    2.3289 H   0  0  0  0  0  0  0  0  0  0  0  0
    1.5879    1.2835    2.7418 H   0  0  0  0  0  0  0  0  0  0  0  0
    0.0142    0.2293    4.2849 H   0  0  0  0  0  0  0  0  0  0  0  0
    3.2610   -2.4116    6.9188 H   0  0  0  0  0  0  0  0  0  0  0  0
    3.0891   -4.3750    4.9259 H   0  0  0  0  0  0  0  0  0  0  0  0
    6.8031   -2.0060    2.6766 H   0  0  0  0  0  0  0  0  0  0  0  0
    4.4661    0.0766    2.7020 H   0  0  0  0  0  0  0  0  0  0  0  0
    4.4739    0.2083    4.4586 H   0  0  0  0  0  0  0  0  0  0  0  0
    6.0050    0.0891    3.5725 H   0  0  0  0  0  0  0  0  0  0  0  0
  1  2  1  0  0  0  0
  1  3  2  0  0  0  0
  1 20  1  0  0  0  0
  2  8  2  0  0  0  0
  2 21  1  0  0  0  0
  3  9  1  0  0  0  0
  3 22  1  0  0  0  0
  4  5  1  0  0  0  0
  4 10  2  0  0  0  0
  4 23  1  0  0  0  0
  5 11  2  0  0  0  0
  5 24  1  0  0  0  0
  6  7  1  0  0  0  0
  6 12  2  0  0  0  0
  6 25  1  0  0  0  0
  7 13  2  0  0  0  0
  7 26  1  0  0  0  0
  8 14  1  0  0  0  0
  8 27  1  0  0  0  0
  9 14  2  0  0  0  0
  9 28  1  0  0  0  0
 10 15  1  0  0  0  0
 10 29  1  0  0  0  0
 11 16  1  0  0  0  0
 11 30  1  0  0  0  0
 12 17  1  0  0  0  0
 12 31  1  0  0  0  0
 13 18  1  0  0  0  0
 13 32  1  0  0  0  0
 14 15  1  0  0  0  0
 15 16  2  0  0  0  0
 16 17  1  0  0  0  0
 17 18  2  0  0  0  0
 18 19  1  0  0  0  0
 19 33  1  0  0  0  0
 19 34  1  0  0  0  0
 19 35  1  0  0  0  0
M  END
$$$$
