
  -OEChem-05262117483D

 18 18  0     0  0  0  0  0  0999 V2000
    0.5332    1.3040   -1.6178 C   0  0  0  0  0  0  0  0  0  0  0  0
    0.2870    1.7333   -2.9542 C   0  0  0  0  0  0  0  0  0  0  0  0
   -0.3715    0.5133   -0.9629 C   0  0  0  0  0  0  0  0  0  0  0  0
   -0.8721    1.3278   -3.5564 C   0  0  0  0  0  0  0  0  0  0  0  0
   -1.6112    0.0879   -1.5826 C   0  0  0  0  0  0  0  0  0  0  0  0
   -4.1866    1.0903   -3.2380 C   0  0  0  0  0  0  0  0  0  0  0  0
   -3.0327    0.1526   -3.5957 C   0  0  0  0  0  0  0  0  0  0  0  0
   -1.7825    0.5331   -2.9190 N   0  0  0  0  0  0  0  0  0  0  0  0
   -2.4828   -0.6043   -1.0428 O   0  0  0  0  0  0  0  0  0  0  0  0
    1.4489    1.6087   -1.1162 H   0  0  0  0  0  0  0  0  0  0  0  0
    0.9885    2.3585   -3.4941 H   0  0  0  0  0  0  0  0  0  0  0  0
   -0.2112    0.1733    0.0548 H   0  0  0  0  0  0  0  0  0  0  0  0
   -1.1260    1.6129   -4.5729 H   0  0  0  0  0  0  0  0  0  0  0  0
   -4.3757    1.0612   -2.1626 H   0  0  0  0  0  0  0  0  0  0  0  0
   -3.9615    2.1214   -3.5303 H   0  0  0  0  0  0  0  0  0  0  0  0
   -5.0979    0.7766   -3.7579 H   0  0  0  0  0  0  0  0  0  0  0  0
   -2.8408    0.1555   -4.6722 H   0  0  0  0  0  0  0  0  0  0  0  0
   -3.2673   -0.8673   -3.2877 H   0  0  0  0  0  0  0  0  0  0  0  0
  1  2  1  0  0  0  0
  1  3  2  0  0  0  0
  1 10  1  0  0  0  0
  2  4  2  0  0  0  0
  2 11  1  0  0  0  0
  3  5  1  0  0  0  0
  3 12  1  0  0  0  0
  4  8  1  0  0  0  0
  4 13  1  0  0  0  0
  5  8  1  0  0  0  0
  5  9  2  0  0  0  0
  6  7  1  0  0  0  0
  6 14  1  0  0  0  0
  6 15  1  0  0  0  0
  6 16  1  0  0  0  0
  7  8  1  0  0  0  0
  7 17  1  0  0  0  0
  7 18  1  0  0  0  0
M  END
$$$$
