16
0 1 C7FH7O
C                     1.823124374261    -1.002575492013    -0.157160646720
C                     0.761724680951    -0.437793995042     0.548731922595
C                     2.888807778258    -1.612800870423     0.519302028363
C                     0.762948958887    -0.482139563890     1.950125671839
C                     2.901856462757    -1.663605983771     1.919161825167
C                     1.819996651190    -1.087041144389     2.609633625510
C                     4.985788259512    -2.816694048039     2.011862617965
O                     3.877750638720    -2.227117254348     2.685920992266
F                     1.823751989016    -1.131291297294     3.963593919296
H                     1.832716097504    -0.974060143003    -1.243172948901
H                    -0.062807598626     0.034411796040     0.023151069041
H                     3.703410814784    -2.045468455945    -0.050414342436
H                    -0.044094140880    -0.054265889971     2.537523890579
H                     5.638676222153    -3.200970277391     2.796282661711
H                     5.530786159538    -2.074915569604     1.415093231752
H                     4.666159440360    -3.643918246794     1.366151711203
