
  -OEChem-05262117483D

 32 33  0     0  0  0  0  0  0999 V2000
   -4.7501   -0.1954   -5.0856 C   0  0  0  0  0  0  0  0  0  0  0  0
   -5.6248    0.8226   -5.4747 C   0  0  0  0  0  0  0  0  0  0  0  0
   -3.4400    0.1278   -4.7238 C   0  0  0  0  0  0  0  0  0  0  0  0
   -5.1803    2.1484   -5.5090 C   0  0  0  0  0  0  0  0  0  0  0  0
   -2.9967    1.4550   -4.7612 C   0  0  0  0  0  0  0  0  0  0  0  0
   -3.8647    2.4874   -5.1653 C   0  0  0  0  0  0  0  0  0  0  0  0
   -1.5563    1.7675   -4.4452 C   0  0  0  0  0  0  0  0  0  0  0  0
   -0.6020    3.1398   -0.7771 C   0  0  0  0  0  0  0  0  0  0  0  0
   -2.0321    2.7526   -1.1797 C   0  0  0  0  0  0  0  0  0  0  0  0
    0.3193    3.1896   -2.0047 C   0  0  0  0  0  0  0  0  0  0  0  0
   -2.0447    1.4571   -2.0041 C   0  0  0  0  0  0  0  0  0  0  0  0
    0.2457    1.8787   -2.7974 C   0  0  0  0  0  0  0  0  0  0  0  0
   -3.3928    3.9213   -5.2345 C   0  0  0  0  0  0  0  0  0  0  0  0
   -1.1412    1.5630   -3.1531 N   0  0  0  0  0  0  0  0  0  0  0  0
   -0.7949    2.1560   -5.3365 O   0  0  0  0  0  0  0  0  0  0  0  0
   -5.0838   -1.2294   -5.0613 H   0  0  0  0  0  0  0  0  0  0  0  0
   -6.6492    0.5875   -5.7521 H   0  0  0  0  0  0  0  0  0  0  0  0
   -2.7515   -0.6542   -4.4121 H   0  0  0  0  0  0  0  0  0  0  0  0
   -5.8665    2.9359   -5.8127 H   0  0  0  0  0  0  0  0  0  0  0  0
   -0.2155    2.3973   -0.0650 H   0  0  0  0  0  0  0  0  0  0  0  0
   -0.6010    4.1041   -0.2569 H   0  0  0  0  0  0  0  0  0  0  0  0
   -2.6633    2.6226   -0.2928 H   0  0  0  0  0  0  0  0  0  0  0  0
   -2.4795    3.5546   -1.7806 H   0  0  0  0  0  0  0  0  0  0  0  0
    0.0216    4.0135   -2.6647 H   0  0  0  0  0  0  0  0  0  0  0  0
    1.3563    3.3753   -1.7020 H   0  0  0  0  0  0  0  0  0  0  0  0
   -1.7098    0.6171   -1.3802 H   0  0  0  0  0  0  0  0  0  0  0  0
   -3.0513    1.2286   -2.3499 H   0  0  0  0  0  0  0  0  0  0  0  0
    0.8231    1.9369   -3.7193 H   0  0  0  0  0  0  0  0  0  0  0  0
    0.6364    1.0502   -2.1910 H   0  0  0  0  0  0  0  0  0  0  0  0
   -2.9245    4.2365   -4.2954 H   0  0  0  0  0  0  0  0  0  0  0  0
   -2.6388    4.0412   -6.0177 H   0  0  0  0  0  0  0  0  0  0  0  0
   -4.2261    4.5983   -5.4410 H   0  0  0  0  0  0  0  0  0  0  0  0
  1  2  1  0  0  0  0
  1  3  2  0  0  0  0
  1 16  1  0  0  0  0
  2  4  2  0  0  0  0
  2 17  1  0  0  0  0
  3  5  1  0  0  0  0
  3 18  1  0  0  0  0
  4  6  1  0  0  0  0
  4 19  1  0  0  0  0
  5  6  2  0  0  0  0
  5  7  1  0  0  0  0
  6 13  1  0  0  0  0
  7 14  1  0  0  0  0
  7 15  2  0  0  0  0
  8  9  1  0  0  0  0
  8 10  1  0  0  0  0
  8 20  1  0  0  0  0
  8 21  1  0  0  0  0
  9 11  1  0  0  0  0
  9 22  1  0  0  0  0
  9 23  1  0  0  0  0
 10 12  1  0  0  0  0
 10 24  1  0  0  0  0
 10 25  1  0  0  0  0
 11 14  1  0  0  0  0
 11 26  1  0  0  0  0
 11 27  1  0  0  0  0
 12 14  1  0  0  0  0
 12 28  1  0  0  0  0
 12 29  1  0  0  0  0
 13 30  1  0  0  0  0
 13 31  1  0  0  0  0
 13 32  1  0  0  0  0
M  END
$$$$
