
  -OEChem-05262117483D

 16 16  0     0  0  0  0  0  0999 V2000
    1.8231   -1.0026   -0.1572 C   0  0  0  0  0  0  0  0  0  0  0  0
    0.7617   -0.4378    0.5487 C   0  0  0  0  0  0  0  0  0  0  0  0
    2.8888   -1.6128    0.5193 C   0  0  0  0  0  0  0  0  0  0  0  0
    0.7629   -0.4821    1.9501 C   0  0  0  0  0  0  0  0  0  0  0  0
    2.9019   -1.6636    1.9192 C   0  0  0  0  0  0  0  0  0  0  0  0
    1.8200   -1.0870    2.6096 C   0  0  0  0  0  0  0  0  0  0  0  0
    4.9858   -2.8167    2.0119 C   0  0  0  0  0  0  0  0  0  0  0  0
    3.8778   -2.2271    2.6859 O   0  0  0  0  0  0  0  0  0  0  0  0
    1.8238   -1.1313    3.9636 F   0  0  0  0  0  0  0  0  0  0  0  0
    1.8327   -0.9741   -1.2432 H   0  0  0  0  0  0  0  0  0  0  0  0
   -0.0628    0.0344    0.0232 H   0  0  0  0  0  0  0  0  0  0  0  0
    3.7034   -2.0455   -0.0504 H   0  0  0  0  0  0  0  0  0  0  0  0
   -0.0441   -0.0543    2.5375 H   0  0  0  0  0  0  0  0  0  0  0  0
    5.6387   -3.2010    2.7963 H   0  0  0  0  0  0  0  0  0  0  0  0
    5.5308   -2.0749    1.4151 H   0  0  0  0  0  0  0  0  0  0  0  0
    4.6662   -3.6439    1.3662 H   0  0  0  0  0  0  0  0  0  0  0  0
  1  2  1  0  0  0  0
  1  3  2  0  0  0  0
  1 10  1  0  0  0  0
  2  4  2  0  0  0  0
  2 11  1  0  0  0  0
  3  5  1  0  0  0  0
  3 12  1  0  0  0  0
  4  6  1  0  0  0  0
  4 13  1  0  0  0  0
  5  6  2  0  0  0  0
  5  8  1  0  0  0  0
  6  9  1  0  0  0  0
  7  8  1  0  0  0  0
  7 14  1  0  0  0  0
  7 15  1  0  0  0  0
  7 16  1  0  0  0  0
M  END
$$$$
