
  -OEChem-05262117483D

 30 31  0     1  0  0  0  0  0999 V2000
    5.3375   -1.0394    3.1328 C   0  0  0  0  0  0  0  0  0  0  0  0
    4.5104   -2.1652    3.1531 C   0  0  0  0  0  0  0  0  0  0  0  0
    5.2021   -0.0974    2.1044 C   0  0  0  0  0  0  0  0  0  0  0  0
    3.5508   -2.3470    2.1496 C   0  0  0  0  0  0  0  0  0  0  0  0
    4.2463   -0.2831    1.1045 C   0  0  0  0  0  0  0  0  0  0  0  0
    3.4137   -1.4122    1.1177 C   0  0  0  0  0  0  0  0  0  0  0  0
   -0.0159    1.1520    1.0668 C   0  0  0  0  0  0  0  0  0  0  0  0
   -0.7621    1.5215   -0.2222 C   0  0  0  0  0  0  0  0  0  0  0  0
    0.5656   -0.2624    1.0313 C   0  0  0  0  0  0  0  0  0  0  0  0
    0.1338    1.3996   -1.4583 C   0  0  0  0  0  0  0  0  0  0  0  0
    2.3911   -1.6090    0.0201 C   0  0  0  0  0  0  0  0  0  0  0  0
    1.5237   -0.4136   -0.0883 N   0  0  1  0  0  0  0  0  0  0  0  0
   -0.3932   -1.1967   -1.7078 O   0  0  0  0  0  0  0  0  0  0  0  0
    1.8186   -0.3497   -2.6259 O   0  0  0  0  0  0  0  0  0  0  0  0
    0.7624   -0.2879   -1.6097 S   0  0  0  0  0  0  0  0  0  0  0  0
    6.0820   -0.8944    3.9114 H   0  0  0  0  0  0  0  0  0  0  0  0
    4.6071   -2.8991    3.9491 H   0  0  0  0  0  0  0  0  0  0  0  0
    5.8447    0.7793    2.0833 H   0  0  0  0  0  0  0  0  0  0  0  0
    2.9046   -3.2220    2.1714 H   0  0  0  0  0  0  0  0  0  0  0  0
    4.1326    0.4474    0.3078 H   0  0  0  0  0  0  0  0  0  0  0  0
    0.8037    1.8600    1.2363 H   0  0  0  0  0  0  0  0  0  0  0  0
   -0.6979    1.2301    1.9202 H   0  0  0  0  0  0  0  0  0  0  0  0
   -1.6339    0.8722   -0.3532 H   0  0  0  0  0  0  0  0  0  0  0  0
   -1.1308    2.5513   -0.1647 H   0  0  0  0  0  0  0  0  0  0  0  0
    1.1335   -0.4490    1.9459 H   0  0  0  0  0  0  0  0  0  0  0  0
   -0.2306   -1.0183    0.9662 H   0  0  0  0  0  0  0  0  0  0  0  0
   -0.4099    1.5828   -2.3888 H   0  0  0  0  0  0  0  0  0  0  0  0
    1.0131    2.0461   -1.4150 H   0  0  0  0  0  0  0  0  0  0  0  0
    2.8959   -1.7308   -0.9414 H   0  0  0  0  0  0  0  0  0  0  0  0
    1.7965   -2.5135    0.2060 H   0  0  0  0  0  0  0  0  0  0  0  0
  1  2  1  0  0  0  0
  1  3  2  0  0  0  0
  1 16  1  0  0  0  0
  2  4  2  0  0  0  0
  2 17  1  0  0  0  0
  3  5  1  0  0  0  0
  3 18  1  0  0  0  0
  4  6  1  0  0  0  0
  4 19  1  0  0  0  0
  5  6  2  0  0  0  0
  5 20  1  0  0  0  0
  6 11  1  0  0  0  0
  7  8  1  0  0  0  0
  7  9  1  0  0  0  0
  7 21  1  0  0  0  0
  7 22  1  0  0  0  0
  8 10  1  0  0  0  0
  8 23  1  0  0  0  0
  8 24  1  0  0  0  0
  9 12  1  0  0  0  0
  9 25  1  0  0  0  0
  9 26  1  0  0  0  0
 10 15  1  0  0  0  0
 10 27  1  0  0  0  0
 10 28  1  0  0  0  0
 11 12  1  0  0  0  0
 11 29  1  0  0  0  0
 11 30  1  0  0  0  0
 12 15  1  0  0  0  0
 13 15  2  0  0  0  0
 14 15  2  0  0  0  0
M  END
$$$$
