24
0 1 BrC9H8N5O
C                     2.078584783839    -0.333801989348    -0.072458806679
C                     0.829521796245    -0.145045129190     0.525477240655
C                     3.037683182059    -1.107624402183     0.573294550679
C                     0.563160060954    -0.725238663707     1.767433664066
C                     2.796160659905    -1.727068100521     1.820383966574
C                     1.532564375855    -1.500358825443     2.407432489138
C                     3.723927967760    -5.512393568394     5.379919012093
C                     4.870466178145    -4.877923036475     4.776668792581
C                     3.902011731046    -2.525294584073     2.357010261961
N                     4.140185704478    -6.194611225563     6.420348777821
N                     5.947374759015    -5.186750777246     5.449332044084
N                     3.790055645373    -3.407745536904     3.286902597325
N                     2.428208171641    -5.499224898255     4.911266735941
N                     4.905994104174    -4.104753231435     3.628034648851
O                     5.519740892333    -6.018160503149     6.465723310588
Br                    1.048318781919    -2.161319899734     4.144704682062
H                     2.303610111198     0.118229169291    -1.034102393820
H                     0.066759827416     0.456298676503     0.039056437335
H                     4.007190088545    -1.257780330165     0.104049363213
H                    -0.396846802241    -0.569275312178     2.248310563506
H                     4.872405707874    -2.352446336065     1.873646324883
H                     2.172164741071    -4.640562149119     4.432848605493
H                     1.742950084474    -5.816627442422     5.587629142526
H                     5.823630869967    -3.758166833979     3.345897437105
