
  -OEChem-05262117483D

 15 15  0     0  0  0  0  0  0999 V2000
   -0.3481    0.7488   -2.1181 C   0  0  0  0  0  0  0  0  0  0  0  0
   -1.2568    0.5504   -3.1191 C   0  0  0  0  0  0  0  0  0  0  0  0
   -0.3751   -0.3157   -1.1664 C   0  0  0  0  0  0  0  0  0  0  0  0
   -1.3050   -1.3174   -1.4562 C   0  0  0  0  0  0  0  0  0  0  0  0
   -1.7934   -2.6366   -0.9037 C   0  0  0  0  0  0  0  0  0  0  0  0
   -1.2507   -3.1196    0.2343 N   0  0  0  0  0  0  0  0  0  0  0  0
    0.5411   -0.2398   -0.0368 N   0  3  0  0  0  0  0  0  0  0  0  0
    1.3376    0.7014   -0.0230 O   0  5  0  0  0  0  0  0  0  0  0  0
   -2.6757   -3.2254   -1.5348 O   0  0  0  0  0  0  0  0  0  0  0  0
    0.4918   -1.0977    0.8619 O   0  0  0  0  0  0  0  0  0  0  0  0
   -2.1404   -0.9173   -2.9224 S   0  0  0  0  0  0  0  0  0  0  0  0
    0.3164    1.5984   -2.0349 H   0  0  0  0  0  0  0  0  0  0  0  0
   -1.4526    1.1958   -3.9663 H   0  0  0  0  0  0  0  0  0  0  0  0
   -1.6181   -3.9979    0.5775 H   0  0  0  0  0  0  0  0  0  0  0  0
   -0.5577   -2.5934    0.7548 H   0  0  0  0  0  0  0  0  0  0  0  0
  1  2  2  0  0  0  0
  1  3  1  0  0  0  0
  1 12  1  0  0  0  0
  2 11  1  0  0  0  0
  2 13  1  0  0  0  0
  3  4  2  0  0  0  0
  3  7  1  0  0  0  0
  4  5  1  0  0  0  0
  4 11  1  0  0  0  0
  5  6  1  0  0  0  0
  5  9  2  0  0  0  0
  6 14  1  0  0  0  0
  6 15  1  0  0  0  0
  7  8  1  0  0  0  0
  7 10  2  0  0  0  0
M  CHG  2   7   1   8  -1
M  END
$$$$
