
  -OEChem-05262117483D

 24 25  0     0  0  0  0  0  0999 V2000
    0.4560   -1.7895    1.2300 C   0  0  0  0  0  0  0  0  0  0  0  0
    0.5088   -0.5812    0.5222 C   0  0  0  0  0  0  0  0  0  0  0  0
    1.5854   -2.2589    1.8898 C   0  0  0  0  0  0  0  0  0  0  0  0
    1.6967    0.1499    0.4807 C   0  0  0  0  0  0  0  0  0  0  0  0
    2.8016   -1.5420    1.8657 C   0  0  0  0  0  0  0  0  0  0  0  0
    2.8244   -0.3325    1.1477 C   0  0  0  0  0  0  0  0  0  0  0  0
    6.1131   -5.1585    5.4477 C   0  0  0  0  0  0  0  0  0  0  0  0
    4.9737   -4.5951    4.7745 C   0  0  0  0  0  0  0  0  0  0  0  0
    3.9753   -2.0587    2.5763 C   0  0  0  0  0  0  0  0  0  0  0  0
    5.6959   -6.0644    6.2918 N   0  0  0  0  0  0  0  0  0  0  0  0
    3.8818   -5.1687    5.2126 N   0  0  0  0  0  0  0  0  0  0  0  0
    3.9227   -3.1854    3.1945 N   0  0  0  0  0  0  0  0  0  0  0  0
    7.4366   -4.7401    5.2952 N   0  0  0  0  0  0  0  0  0  0  0  0
    5.0676   -3.6177    3.7987 N   0  0  0  0  0  0  0  0  0  0  0  0
    4.3181   -6.0854    6.1618 O   0  0  0  0  0  0  0  0  0  0  0  0
    4.4247    0.7385    1.0362 Br  0  0  0  0  0  0  0  0  0  0  0  0
   -0.4674   -2.3607    1.2662 H   0  0  0  0  0  0  0  0  0  0  0  0
   -0.3694   -0.2059    0.0042 H   0  0  0  0  0  0  0  0  0  0  0  0
    1.5593   -3.1910    2.4452 H   0  0  0  0  0  0  0  0  0  0  0  0
    1.7497    1.0867   -0.0639 H   0  0  0  0  0  0  0  0  0  0  0  0
    4.8876   -1.4537    2.5590 H   0  0  0  0  0  0  0  0  0  0  0  0
    7.7542   -4.8066    4.3308 H   0  0  0  0  0  0  0  0  0  0  0  0
    8.0634   -5.2642    5.9006 H   0  0  0  0  0  0  0  0  0  0  0  0
    5.8282   -2.9478    3.9345 H   0  0  0  0  0  0  0  0  0  0  0  0
  1  2  1  0  0  0  0
  1  3  2  0  0  0  0
  1 17  1  0  0  0  0
  2  4  2  0  0  0  0
  2 18  1  0  0  0  0
  3  5  1  0  0  0  0
  3 19  1  0  0  0  0
  4  6  1  0  0  0  0
  4 20  1  0  0  0  0
  5  6  2  0  0  0  0
  5  9  1  0  0  0  0
  6 16  1  0  0  0  0
  7  8  1  0  0  0  0
  7 10  2  0  0  0  0
  7 13  1  0  0  0  0
  8 11  2  0  0  0  0
  8 14  1  0  0  0  0
  9 12  2  0  0  0  0
  9 21  1  0  0  0  0
 10 15  1  0  0  0  0
 11 15  1  0  0  0  0
 12 14  1  0  0  0  0
 13 22  1  0  0  0  0
 13 23  1  0  0  0  0
 14 24  1  0  0  0  0
M  END
$$$$
