20
0 1 C10F2H5NOS
C                     1.946004794271    -0.852367932210    -0.068608386291
C                     0.970873474883    -0.194790766260     0.679173718726
C                     2.863191097964    -1.702813988043     0.557304932081
C                    -0.800968880945     3.626446842047     1.676918717114
C                    -1.861893119114     3.717477562151     2.549217256989
C                     0.872445476511    -0.391090153247     2.068385596909
C                     2.779820514323    -1.886753488756     1.931418410758
C                     1.792839419617    -1.251267688024     2.684707350792
C                    -0.676137315766     1.601473144299     2.553054881871
C                    -0.224354939210     0.221197486963     2.880024791255
N                    -0.138913912690     2.429078583484     1.687206017342
O                    -0.764029099534    -0.378430477499     3.803468747758
F                     3.660807932326    -2.690870005709     2.562307894657
F                     1.780141643110    -1.457660119576     4.009217181228
S                    -2.049744276601     2.250625475673     3.430267080860
H                     2.000178332235    -0.700122278131    -1.142115146171
H                     0.273239922465     0.473821914159     0.191122224080
H                     3.640653509160    -2.219497943906     0.002618554050
H                    -0.470131331748     4.416595292600     1.011621495965
H                    -2.520180446172     4.561935834967     2.709510818008
