20
0 1 C10F2H5NOS
C                     1.981880114555    -0.963225594163    -0.105051116839
C                     0.883568744437    -0.389935483281     0.532606760546
C                     2.953185477418    -1.641125075333     0.640669345515
C                    -2.006668542555    -2.382136379106     4.699209404140
C                    -2.849877470311    -1.415279925472     5.200470088024
C                     0.719610885239    -0.503117127499     1.922943224971
C                     2.806068450112    -1.728296151491     2.019040144812
C                     1.701570929608    -1.168231110455     2.661047880037
C                    -1.257875714357    -0.662626844774     3.536431348421
C                    -0.490567869868     0.124917678186     2.543705728170
N                    -1.112281076969    -1.946826458310     3.761825967389
O                    -0.878284899405     1.235813184005     2.196254263561
F                     3.745159467637    -2.348958454985     2.763640095590
F                     1.645172206765    -1.230805574769     4.003105925292
S                    -2.528362594787     0.108001158078     4.464911203975
H                     2.090245584684    -0.882470172547    -1.182258704001
H                     0.129430215683     0.148524125385    -0.032331039497
H                     3.824985902785    -2.090825811620     0.175119127339
H                    -2.010671545899    -3.425916640927     4.993815623792
H                    -3.622880150605    -1.528891891305     5.949932050220
