
  -OEChem-05262117483D

 20 21  0     0  0  0  0  0  0999 V2000
    1.9385   -0.8281   -0.0634 C   0  0  0  0  0  0  0  0  0  0  0  0
    0.8282   -0.4047    0.6644 C   0  0  0  0  0  0  0  0  0  0  0  0
    2.9888   -1.4934    0.5795 C   0  0  0  0  0  0  0  0  0  0  0  0
    0.7053    1.7519    5.6666 C   0  0  0  0  0  0  0  0  0  0  0  0
   -0.5906    1.8088    6.1297 C   0  0  0  0  0  0  0  0  0  0  0  0
    0.7551   -0.6143    2.0513 C   0  0  0  0  0  0  0  0  0  0  0  0
    2.9036   -1.7263    1.9462 C   0  0  0  0  0  0  0  0  0  0  0  0
    1.8008   -1.2926    2.6821 C   0  0  0  0  0  0  0  0  0  0  0  0
   -0.2694    0.6127    4.0474 C   0  0  0  0  0  0  0  0  0  0  0  0
   -0.4605   -0.1225    2.7756 C   0  0  0  0  0  0  0  0  0  0  0  0
    0.8754    1.0746    4.4916 N   0  0  0  0  0  0  0  0  0  0  0  0
   -1.5831   -0.2649    2.3015 O   0  0  0  0  0  0  0  0  0  0  0  0
    3.8885   -2.3938    2.5833 F   0  0  0  0  0  0  0  0  0  0  0  0
    1.7460   -1.6013    3.9897 F   0  0  0  0  0  0  0  0  0  0  0  0
   -1.6552    0.9932    5.0498 S   0  0  0  0  0  0  0  0  0  0  0  0
    1.9909   -0.6470   -1.1325 H   0  0  0  0  0  0  0  0  0  0  0  0
    0.0018    0.1017    0.1762 H   0  0  0  0  0  0  0  0  0  0  0  0
    3.8633   -1.8438    0.0396 H   0  0  0  0  0  0  0  0  0  0  0  0
    1.5634    2.1948    6.1603 H   0  0  0  0  0  0  0  0  0  0  0  0
   -0.9548    2.2799    7.0339 H   0  0  0  0  0  0  0  0  0  0  0  0
  1  2  1  0  0  0  0
  1  3  2  0  0  0  0
  1 16  1  0  0  0  0
  2  6  2  0  0  0  0
  2 17  1  0  0  0  0
  3  7  1  0  0  0  0
  3 18  1  0  0  0  0
  4  5  2  0  0  0  0
  4 11  1  0  0  0  0
  4 19  1  0  0  0  0
  5 15  1  0  0  0  0
  5 20  1  0  0  0  0
  6  8  1  0  0  0  0
  6 10  1  0  0  0  0
  7  8  2  0  0  0  0
  7 13  1  0  0  0  0
  8 14  1  0  0  0  0
  9 10  1  0  0  0  0
  9 11  2  0  0  0  0
  9 15  1  0  0  0  0
 10 12  2  0  0  0  0
M  END
$$$$
