
  -OEChem-05262117483D

 24 25  0     0  0  0  0  0  0999 V2000
    2.0718   -0.4351   -0.3646 C   0  0  0  0  0  0  0  0  0  0  0  0
    0.7272   -0.5461    0.0013 C   0  0  0  0  0  0  0  0  0  0  0  0
    3.0314   -1.1564    0.3383 C   0  0  0  0  0  0  0  0  0  0  0  0
    0.3644   -1.3767    1.0633 C   0  0  0  0  0  0  0  0  0  0  0  0
    2.6993   -2.0059    1.4177 C   0  0  0  0  0  0  0  0  0  0  0  0
    1.3321   -2.1001    1.7661 C   0  0  0  0  0  0  0  0  0  0  0  0
    6.0745   -5.3186    5.2793 C   0  0  0  0  0  0  0  0  0  0  0  0
    4.9260   -4.6438    4.7373 C   0  0  0  0  0  0  0  0  0  0  0  0
    3.8276   -2.6901    2.0547 C   0  0  0  0  0  0  0  0  0  0  0  0
    5.7832   -5.7461    6.4791 N   0  0  0  0  0  0  0  0  0  0  0  0
    3.9508   -4.6752    5.6099 N   0  0  0  0  0  0  0  0  0  0  0  0
    3.7353   -3.5093    3.0399 N   0  0  0  0  0  0  0  0  0  0  0  0
    7.3248   -5.4184    4.6639 N   0  0  0  0  0  0  0  0  0  0  0  0
    4.8960   -4.0858    3.4701 N   0  0  0  0  0  0  0  0  0  0  0  0
    4.4735   -5.3573    6.7019 O   0  0  0  0  0  0  0  0  0  0  0  0
    0.6926   -3.1909    3.1986 Br  0  0  0  0  0  0  0  0  0  0  0  0
    2.3689    0.2073   -1.1885 H   0  0  0  0  0  0  0  0  0  0  0  0
   -0.0394    0.0090   -0.5323 H   0  0  0  0  0  0  0  0  0  0  0  0
    4.0778   -1.0697    0.0542 H   0  0  0  0  0  0  0  0  0  0  0  0
   -0.6769   -1.4668    1.3543 H   0  0  0  0  0  0  0  0  0  0  0  0
    4.8090   -2.4517    1.6180 H   0  0  0  0  0  0  0  0  0  0  0  0
    7.2685   -5.8728    3.7550 H   0  0  0  0  0  0  0  0  0  0  0  0
    7.9887   -5.9134    5.2540 H   0  0  0  0  0  0  0  0  0  0  0  0
    5.7844   -3.6817    3.1622 H   0  0  0  0  0  0  0  0  0  0  0  0
  1  2  1  0  0  0  0
  1  3  2  0  0  0  0
  1 17  1  0  0  0  0
  2  4  2  0  0  0  0
  2 18  1  0  0  0  0
  3  5  1  0  0  0  0
  3 19  1  0  0  0  0
  4  6  1  0  0  0  0
  4 20  1  0  0  0  0
  5  6  2  0  0  0  0
  5  9  1  0  0  0  0
  6 16  1  0  0  0  0
  7  8  1  0  0  0  0
  7 10  2  0  0  0  0
  7 13  1  0  0  0  0
  8 11  2  0  0  0  0
  8 14  1  0  0  0  0
  9 12  2  0  0  0  0
  9 21  1  0  0  0  0
 10 15  1  0  0  0  0
 11 15  1  0  0  0  0
 12 14  1  0  0  0  0
 13 22  1  0  0  0  0
 13 23  1  0  0  0  0
 14 24  1  0  0  0  0
M  END
$$$$
