
  -OEChem-05262117483D

 24 25  0     0  0  0  0  0  0999 V2000
    1.5057    0.8841    0.9084 C   0  0  0  0  0  0  0  0  0  0  0  0
    0.5333    0.1863    0.1866 C   0  0  0  0  0  0  0  0  0  0  0  0
    2.4563    0.1776    1.6384 C   0  0  0  0  0  0  0  0  0  0  0  0
    0.5344   -1.2101    0.1976 C   0  0  0  0  0  0  0  0  0  0  0  0
    2.4750   -1.2346    1.6896 C   0  0  0  0  0  0  0  0  0  0  0  0
    1.4928   -1.9100    0.9336 C   0  0  0  0  0  0  0  0  0  0  0  0
    3.6869   -5.7753    4.0902 C   0  0  0  0  0  0  0  0  0  0  0  0
    4.7086   -4.7577    4.0487 C   0  0  0  0  0  0  0  0  0  0  0  0
    3.5281   -1.8256    2.5202 C   0  0  0  0  0  0  0  0  0  0  0  0
    4.2527   -6.9022    4.4523 N   0  0  0  0  0  0  0  0  0  0  0  0
    5.8589   -5.2773    4.3869 N   0  0  0  0  0  0  0  0  0  0  0  0
    3.5295   -3.0366    2.9555 N   0  0  0  0  0  0  0  0  0  0  0  0
    2.3355   -5.6007    3.8852 N   0  0  0  0  0  0  0  0  0  0  0  0
    4.5537   -3.4105    3.7671 N   0  0  0  0  0  0  0  0  0  0  0  0
    5.5964   -6.6057    4.6585 O   0  0  0  0  0  0  0  0  0  0  0  0
    1.4161   -3.8234    0.7831 Br  0  0  0  0  0  0  0  0  0  0  0  0
    1.5232    1.9701    0.9025 H   0  0  0  0  0  0  0  0  0  0  0  0
   -0.2174    0.7182   -0.3908 H   0  0  0  0  0  0  0  0  0  0  0  0
    3.2088    0.7225    2.2037 H   0  0  0  0  0  0  0  0  0  0  0  0
   -0.2048   -1.7612   -0.3744 H   0  0  0  0  0  0  0  0  0  0  0  0
    4.3360   -1.1370    2.8000 H   0  0  0  0  0  0  0  0  0  0  0  0
    1.8258   -6.4657    3.7447 H   0  0  0  0  0  0  0  0  0  0  0  0
    2.1117   -4.8733    3.2124 H   0  0  0  0  0  0  0  0  0  0  0  0
    5.4000   -2.8412    3.8070 H   0  0  0  0  0  0  0  0  0  0  0  0
  1  2  1  0  0  0  0
  1  3  2  0  0  0  0
  1 17  1  0  0  0  0
  2  4  2  0  0  0  0
  2 18  1  0  0  0  0
  3  5  1  0  0  0  0
  3 19  1  0  0  0  0
  4  6  1  0  0  0  0
  4 20  1  0  0  0  0
  5  6  2  0  0  0  0
  5  9  1  0  0  0  0
  6 16  1  0  0  0  0
  7  8  1  0  0  0  0
  7 10  2  0  0  0  0
  7 13  1  0  0  0  0
  8 11  2  0  0  0  0
  8 14  1  0  0  0  0
  9 12  2  0  0  0  0
  9 21  1  0  0  0  0
 10 15  1  0  0  0  0
 11 15  1  0  0  0  0
 12 14  1  0  0  0  0
 13 22  1  0  0  0  0
 13 23  1  0  0  0  0
 14 24  1  0  0  0  0
M  END
$$$$
