
  -OEChem-05262117483D

 37 40  0     0  0  0  0  0  0999 V2000
   -2.5226   -5.5126    0.7324 C   0  0  0  0  0  0  0  0  0  0  0  0
   -1.4329   -0.7716    0.8827 C   0  0  0  0  0  0  0  0  0  0  0  0
   -1.5236   -4.5643    0.9431 C   0  0  0  0  0  0  0  0  0  0  0  0
   -0.9365   -2.0565    1.0246 C   0  0  0  0  0  0  0  0  0  0  0  0
   -3.8618   -5.1569    0.4108 C   0  0  0  0  0  0  0  0  0  0  0  0
   -2.7978   -0.4806    0.5536 C   0  0  0  0  0  0  0  0  0  0  0  0
   -1.8111   -3.1738    0.8414 C   0  0  0  0  0  0  0  0  0  0  0  0
   -3.1398   -2.8671    0.5203 C   0  0  0  0  0  0  0  0  0  0  0  0
   -4.1560   -3.8103    0.3071 C   0  0  0  0  0  0  0  0  0  0  0  0
   -3.6414   -1.5535    0.3711 C   0  0  0  0  0  0  0  0  0  0  0  0
   -6.0603    0.2667    1.0794 C   0  0  0  0  0  0  0  0  0  0  0  0
   -6.4664    0.7538    3.1249 C   0  0  0  0  0  0  0  0  0  0  0  0
   -5.3998   -3.0349    0.0036 C   0  0  0  0  0  0  0  0  0  0  0  0
   -6.8658    1.8146    5.3458 C   0  0  0  0  0  0  0  0  0  0  0  0
   -6.0317   -0.5903    5.1794 C   0  0  0  0  0  0  0  0  0  0  0  0
   -5.9329   -0.5797   -0.1460 C   0  0  0  0  0  0  0  0  0  0  0  0
   -6.8979    0.5123    4.5364 C   0  0  0  0  0  0  0  0  0  0  0  0
   -5.7117    1.5049    1.2354 N   0  0  0  0  0  0  0  0  0  0  0  0
   -5.9834    1.8268    2.5760 N   0  0  0  0  0  0  0  0  0  0  0  0
   -5.0041   -1.6745    0.0468 N   0  0  0  0  0  0  0  0  0  0  0  0
   -6.5347   -3.4187   -0.2386 O   0  0  0  0  0  0  0  0  0  0  0  0
   -6.5486   -0.2860    2.2295 O   0  0  0  0  0  0  0  0  0  0  0  0
   -2.2707   -6.5663    0.8178 H   0  0  0  0  0  0  0  0  0  0  0  0
   -0.7610    0.0701    1.0283 H   0  0  0  0  0  0  0  0  0  0  0  0
   -0.5163   -4.8929    1.1882 H   0  0  0  0  0  0  0  0  0  0  0  0
    0.1091   -2.2133    1.2759 H   0  0  0  0  0  0  0  0  0  0  0  0
   -4.6184   -5.9206    0.2548 H   0  0  0  0  0  0  0  0  0  0  0  0
   -3.1316    0.5488    0.4688 H   0  0  0  0  0  0  0  0  0  0  0  0
   -5.8490    2.2133    5.4009 H   0  0  0  0  0  0  0  0  0  0  0  0
   -7.2191    1.6226    6.3636 H   0  0  0  0  0  0  0  0  0  0  0  0
   -7.5000    2.5818    4.8945 H   0  0  0  0  0  0  0  0  0  0  0  0
   -4.9873   -0.2685    5.2466 H   0  0  0  0  0  0  0  0  0  0  0  0
   -6.0700   -1.5181    4.6021 H   0  0  0  0  0  0  0  0  0  0  0  0
   -6.3905   -0.8004    6.1916 H   0  0  0  0  0  0  0  0  0  0  0  0
   -6.8950   -1.0285   -0.4090 H   0  0  0  0  0  0  0  0  0  0  0  0
   -5.6090    0.0717   -0.9631 H   0  0  0  0  0  0  0  0  0  0  0  0
   -7.9318    0.1452    4.4918 H   0  0  0  0  0  0  0  0  0  0  0  0
  1  3  1  0  0  0  0
  1  5  2  0  0  0  0
  1 23  1  0  0  0  0
  2  4  2  0  0  0  0
  2  6  1  0  0  0  0
  2 24  1  0  0  0  0
  3  7  2  0  0  0  0
  3 25  1  0  0  0  0
  4  7  1  0  0  0  0
  4 26  1  0  0  0  0
  5  9  1  0  0  0  0
  5 27  1  0  0  0  0
  6 10  2  0  0  0  0
  6 28  1  0  0  0  0
  7  8  1  0  0  0  0
  8  9  2  0  0  0  0
  8 10  1  0  0  0  0
  9 13  1  0  0  0  0
 10 20  1  0  0  0  0
 11 16  1  0  0  0  0
 11 18  2  0  0  0  0
 11 22  1  0  0  0  0
 12 17  1  0  0  0  0
 12 19  2  0  0  0  0
 12 22  1  0  0  0  0
 13 20  1  0  0  0  0
 13 21  2  0  0  0  0
 14 17  1  0  0  0  0
 14 29  1  0  0  0  0
 14 30  1  0  0  0  0
 14 31  1  0  0  0  0
 15 17  1  0  0  0  0
 15 32  1  0  0  0  0
 15 33  1  0  0  0  0
 15 34  1  0  0  0  0
 16 20  1  0  0  0  0
 16 35  1  0  0  0  0
 16 36  1  0  0  0  0
 17 37  1  0  0  0  0
 18 19  1  0  0  0  0
M  END
$$$$
