28
0 1 C11F2H9N5O
C                     0.643285708772     0.936931524705    -9.589413468901
C                     0.159621537712    -0.331518097549    -9.261444986246
C                     0.734300886941     1.935950178555    -8.615194175852
C                    -0.131833860285     0.370990044830    -6.918632342468
C                    -0.219836231506    -0.577452227230    -7.948277360224
C                     0.342492587302     1.633713683909    -7.319317775029
C                     0.809894634668    -4.946084537904    -2.456030573677
C                     0.128864578163    -3.743534406758    -1.939984112307
C                     0.470883435442    -2.945673616409    -4.179798513441
C                    -0.554005485714     0.179063519015    -5.515943754799
C                     1.015376749123    -6.087334161829    -1.505868168759
N                     1.231380800980    -5.054047452345    -3.688596408811
N                     1.066027485603    -4.035859946717    -4.593064377462
N                    -0.365074658548    -0.813191990785    -4.713634229850
N                     0.001264871120    -2.754154615256    -2.916511591681
N                     0.323249650714    -1.912211156590    -5.082108365133
O                    -0.293432245303    -3.584376253654    -0.799885681653
F                    -0.725826891803    -1.803483395867    -7.650441058753
F                     0.426923911953     2.600248530093    -6.375951132644
H                     0.944634418687     1.150671348989   -10.610196985631
H                     0.059617760734    -1.119429260940   -10.000582674604
H                     1.102870115369     2.930499507519    -8.843600167697
H                    -1.054944646816     1.024535346111    -5.052764996667
H                     0.055016517261    -6.438860439130    -1.114034685576
H                     1.606280311791    -5.766216179797    -0.641493417310
H                     1.525738947649    -6.903405718032    -2.019352862085
H                    -0.461917337248    -1.877258684319    -2.684008175402
H                     0.582785608541    -2.129297042462    -6.041178314786
