
  -OEChem-05262117483D

 49 52  0     1  0  0  0  0  0999 V2000
   -3.1886   -0.3920    1.6160 C   0  0  0  0  0  0  0  0  0  0  0  0
   -3.1534    0.7174   -0.5323 C   0  0  0  0  0  0  0  0  0  0  0  0
   -5.6786   -2.0338   -2.1174 C   0  0  0  0  0  0  0  0  0  0  0  0
   -4.9579    1.1917   -3.0739 C   0  0  0  0  0  0  0  0  0  0  0  0
   -5.1118   -0.9969   -4.4022 C   0  0  0  0  0  0  0  0  0  0  0  0
   -3.9483    2.0952   -2.3626 C   0  0  0  0  0  0  0  0  0  0  0  0
   -6.0823   -2.5084    0.2350 C   0  0  0  0  0  0  0  0  0  0  0  0
   -3.9878   -3.3334   -0.7899 C   0  0  0  0  0  0  0  0  0  0  0  0
   -6.1387   -3.7894    1.0575 C   0  0  0  0  0  0  0  0  0  0  0  0
   -4.1306   -4.5957    0.0567 C   0  0  0  0  0  0  0  0  0  0  0  0
   -2.1059    0.5517   -2.7408 C   0  0  0  0  0  0  0  0  0  0  0  0
   -4.6733   -1.9707   -3.2914 C   0  0  1  0  0  0  0  0  0  0  0  0
   -4.2860    0.2698   -4.1125 C   0  0  2  0  0  0  0  0  0  0  0  0
   -2.9830   -0.3605   -3.5979 C   0  0  2  0  0  0  0  0  0  0  0  0
   -3.0162   -1.2729    2.8133 C   0  0  0  0  0  0  0  0  0  0  0  0
   -4.8302   -5.4732    2.1941 C   0  0  0  0  0  0  0  0  0  0  0  0
   -4.2552    0.3063    1.3728 N   0  0  0  0  0  0  0  0  0  0  0  0
   -4.2501    0.9393    0.1514 N   0  0  0  0  0  0  0  0  0  0  0  0
   -2.8730    1.2979   -1.7462 N   0  0  0  0  0  0  0  0  0  0  0  0
   -5.2895   -2.6947   -0.9880 N   0  0  0  0  0  0  0  0  0  0  0  0
   -4.7923   -4.3017    1.3263 N   0  0  0  0  0  0  0  0  0  0  0  0
   -6.7884   -1.5024   -2.2227 O   0  0  0  0  0  0  0  0  0  0  0  0
   -3.3943   -1.4905   -2.8139 O   0  0  0  0  0  0  0  0  0  0  0  0
   -1.9951   -0.3162    0.3156 S   0  0  0  0  0  0  0  0  0  0  0  0
   -5.4849    0.6063   -2.3196 H   0  0  0  0  0  0  0  0  0  0  0  0
   -5.7167    1.8036   -3.5746 H   0  0  0  0  0  0  0  0  0  0  0  0
   -4.8474   -1.4092   -5.3810 H   0  0  0  0  0  0  0  0  0  0  0  0
   -6.1879   -0.8255   -4.3676 H   0  0  0  0  0  0  0  0  0  0  0  0
   -3.4650    2.7850   -3.0658 H   0  0  0  0  0  0  0  0  0  0  0  0
   -4.4332    2.6817   -1.5825 H   0  0  0  0  0  0  0  0  0  0  0  0
   -7.0836   -2.1979   -0.0606 H   0  0  0  0  0  0  0  0  0  0  0  0
   -5.6358   -1.7031    0.8285 H   0  0  0  0  0  0  0  0  0  0  0  0
   -3.3019   -2.6382   -0.2981 H   0  0  0  0  0  0  0  0  0  0  0  0
   -3.5482   -3.5944   -1.7509 H   0  0  0  0  0  0  0  0  0  0  0  0
   -6.6310   -3.5701    2.0107 H   0  0  0  0  0  0  0  0  0  0  0  0
   -6.7510   -4.5458    0.5289 H   0  0  0  0  0  0  0  0  0  0  0  0
   -4.6854   -5.3659   -0.5153 H   0  0  0  0  0  0  0  0  0  0  0  0
   -3.1292   -4.9908    0.2602 H   0  0  0  0  0  0  0  0  0  0  0  0
   -1.3246   -0.0365   -2.2544 H   0  0  0  0  0  0  0  0  0  0  0  0
   -1.6077    1.2749   -3.3971 H   0  0  0  0  0  0  0  0  0  0  0  0
   -4.5356   -2.9833   -3.6922 H   0  0  0  0  0  0  0  0  0  0  0  0
   -4.0854    0.8331   -5.0308 H   0  0  0  0  0  0  0  0  0  0  0  0
   -2.3805   -0.7144   -4.4501 H   0  0  0  0  0  0  0  0  0  0  0  0
   -3.1986   -2.3207    2.5431 H   0  0  0  0  0  0  0  0  0  0  0  0
   -2.0133   -1.1876    3.2423 H   0  0  0  0  0  0  0  0  0  0  0  0
   -3.7519   -0.9813    3.5662 H   0  0  0  0  0  0  0  0  0  0  0  0
   -5.3025   -5.2107    3.1461 H   0  0  0  0  0  0  0  0  0  0  0  0
   -3.8102   -5.8125    2.4024 H   0  0  0  0  0  0  0  0  0  0  0  0
   -5.3913   -6.3186    1.7531 H   0  0  0  0  0  0  0  0  0  0  0  0
  1 15  1  0  0  0  0
  1 17  2  0  0  0  0
  1 24  1  0  0  0  0
  2 18  2  0  0  0  0
  2 19  1  0  0  0  0
  2 24  1  0  0  0  0
  3 12  1  0  0  0  0
  3 20  1  0  0  0  0
  3 22  2  0  0  0  0
  4  6  1  0  0  0  0
  4 13  1  0  0  0  0
  4 25  1  0  0  0  0
  4 26  1  0  0  0  0
  5 12  1  0  0  0  0
  5 13  1  0  0  0  0
  5 27  1  0  0  0  0
  5 28  1  0  0  0  0
  6 19  1  0  0  0  0
  6 29  1  0  0  0  0
  6 30  1  0  0  0  0
  7  9  1  0  0  0  0
  7 20  1  0  0  0  0
  7 31  1  0  0  0  0
  7 32  1  0  0  0  0
  8 10  1  0  0  0  0
  8 20  1  0  0  0  0
  8 33  1  0  0  0  0
  8 34  1  0  0  0  0
  9 21  1  0  0  0  0
  9 35  1  0  0  0  0
  9 36  1  0  0  0  0
 10 21  1  0  0  0  0
 10 37  1  0  0  0  0
 10 38  1  0  0  0  0
 11 14  1  0  0  0  0
 11 19  1  0  0  0  0
 11 39  1  0  0  0  0
 11 40  1  0  0  0  0
 12 23  1  0  0  0  0
 12 41  1  0  0  0  0
 13 14  1  0  0  0  0
 13 42  1  0  0  0  0
 14 23  1  0  0  0  0
 14 43  1  0  0  0  0
 15 44  1  0  0  0  0
 15 45  1  0  0  0  0
 15 46  1  0  0  0  0
 16 21  1  0  0  0  0
 16 47  1  0  0  0  0
 16 48  1  0  0  0  0
 16 49  1  0  0  0  0
 17 18  1  0  0  0  0
M  END
$$$$
