
  -OEChem-05262117483D

 49 52  0     1  0  0  0  0  0999 V2000
   -8.3294    2.6844   -3.7393 C   0  0  0  0  0  0  0  0  0  0  0  0
   -6.4963    1.1182   -3.5807 C   0  0  0  0  0  0  0  0  0  0  0  0
   -2.3018   -0.5257    0.2380 C   0  0  0  0  0  0  0  0  0  0  0  0
   -3.9912   -1.4829   -4.1982 C   0  0  0  0  0  0  0  0  0  0  0  0
   -2.5764   -1.6839   -2.0113 C   0  0  0  0  0  0  0  0  0  0  0  0
   -5.3387   -1.0113   -3.6518 C   0  0  0  0  0  0  0  0  0  0  0  0
   -2.2755   -1.3924    2.5252 C   0  0  0  0  0  0  0  0  0  0  0  0
   -0.8641   -2.5004    0.8838 C   0  0  0  0  0  0  0  0  0  0  0  0
   -3.0171   -2.7084    2.7572 C   0  0  0  0  0  0  0  0  0  0  0  0
   -1.6205   -3.8083    1.1332 C   0  0  0  0  0  0  0  0  0  0  0  0
   -4.3069    0.8816   -2.4772 C   0  0  0  0  0  0  0  0  0  0  0  0
   -1.7844   -0.6203   -1.2087 C   0  0  1  0  0  0  0  0  0  0  0  0
   -2.7983   -0.9942   -3.3681 C   0  0  2  0  0  0  0  0  0  0  0  0
   -2.9015    0.4791   -2.9508 C   0  0  2  0  0  0  0  0  0  0  0  0
   -9.2847    3.8366   -3.7196 C   0  0  0  0  0  0  0  0  0  0  0  0
   -2.8026   -5.1168    2.7801 C   0  0  0  0  0  0  0  0  0  0  0  0
   -8.6144    1.5046   -4.1970 N   0  0  0  0  0  0  0  0  0  0  0  0
   -7.5836    0.5997   -4.1036 N   0  0  0  0  0  0  0  0  0  0  0  0
   -5.3099    0.4435   -3.4519 N   0  0  0  0  0  0  0  0  0  0  0  0
   -1.7246   -1.3533    1.1684 N   0  0  0  0  0  0  0  0  0  0  0  0
   -2.1358   -3.8505    2.4997 N   0  0  0  0  0  0  0  0  0  0  0  0
   -3.2111    0.2532    0.5247 O   0  0  0  0  0  0  0  0  0  0  0  0
   -1.9578    0.6276   -1.8846 O   0  0  0  0  0  0  0  0  0  0  0  0
   -6.6790    2.8153   -3.1183 S   0  0  0  0  0  0  0  0  0  0  0  0
   -3.9872   -2.5773   -4.2616 H   0  0  0  0  0  0  0  0  0  0  0  0
   -3.8878   -1.1034   -5.2209 H   0  0  0  0  0  0  0  0  0  0  0  0
   -2.0281   -2.6246   -2.1063 H   0  0  0  0  0  0  0  0  0  0  0  0
   -3.5292   -1.9031   -1.5207 H   0  0  0  0  0  0  0  0  0  0  0  0
   -6.1408   -1.2441   -4.3504 H   0  0  0  0  0  0  0  0  0  0  0  0
   -5.5814   -1.5060   -2.6983 H   0  0  0  0  0  0  0  0  0  0  0  0
   -2.9442   -0.5416    2.6468 H   0  0  0  0  0  0  0  0  0  0  0  0
   -1.4466   -1.3072    3.2377 H   0  0  0  0  0  0  0  0  0  0  0  0
    0.0063   -2.4573    1.5497 H   0  0  0  0  0  0  0  0  0  0  0  0
   -0.5019   -2.4742   -0.1420 H   0  0  0  0  0  0  0  0  0  0  0  0
   -3.3555   -2.7553    3.7979 H   0  0  0  0  0  0  0  0  0  0  0  0
   -3.9158   -2.7336    2.1111 H   0  0  0  0  0  0  0  0  0  0  0  0
   -2.4340   -3.9011    0.3855 H   0  0  0  0  0  0  0  0  0  0  0  0
   -0.9377   -4.6529    0.9872 H   0  0  0  0  0  0  0  0  0  0  0  0
   -4.5043    0.4584   -1.4849 H   0  0  0  0  0  0  0  0  0  0  0  0
   -4.3337    1.9672   -2.3697 H   0  0  0  0  0  0  0  0  0  0  0  0
   -0.7106   -0.8293   -1.2228 H   0  0  0  0  0  0  0  0  0  0  0  0
   -1.8823   -1.1063   -3.9596 H   0  0  0  0  0  0  0  0  0  0  0  0
   -2.5872    1.1478   -3.7575 H   0  0  0  0  0  0  0  0  0  0  0  0
   -9.4614    4.1925   -2.6990 H   0  0  0  0  0  0  0  0  0  0  0  0
   -8.9079    4.6798   -4.3083 H   0  0  0  0  0  0  0  0  0  0  0  0
  -10.2335    3.5048   -4.1463 H   0  0  0  0  0  0  0  0  0  0  0  0
   -3.1305   -5.1362    3.8241 H   0  0  0  0  0  0  0  0  0  0  0  0
   -2.1024   -5.9447    2.6289 H   0  0  0  0  0  0  0  0  0  0  0  0
   -3.6868   -5.2905    2.1382 H   0  0  0  0  0  0  0  0  0  0  0  0
  1 15  1  0  0  0  0
  1 17  2  0  0  0  0
  1 24  1  0  0  0  0
  2 18  2  0  0  0  0
  2 19  1  0  0  0  0
  2 24  1  0  0  0  0
  3 12  1  0  0  0  0
  3 20  1  0  0  0  0
  3 22  2  0  0  0  0
  4  6  1  0  0  0  0
  4 13  1  0  0  0  0
  4 25  1  0  0  0  0
  4 26  1  0  0  0  0
  5 12  1  0  0  0  0
  5 13  1  0  0  0  0
  5 27  1  0  0  0  0
  5 28  1  0  0  0  0
  6 19  1  0  0  0  0
  6 29  1  0  0  0  0
  6 30  1  0  0  0  0
  7  9  1  0  0  0  0
  7 20  1  0  0  0  0
  7 31  1  0  0  0  0
  7 32  1  0  0  0  0
  8 10  1  0  0  0  0
  8 20  1  0  0  0  0
  8 33  1  0  0  0  0
  8 34  1  0  0  0  0
  9 21  1  0  0  0  0
  9 35  1  0  0  0  0
  9 36  1  0  0  0  0
 10 21  1  0  0  0  0
 10 37  1  0  0  0  0
 10 38  1  0  0  0  0
 11 14  1  0  0  0  0
 11 19  1  0  0  0  0
 11 39  1  0  0  0  0
 11 40  1  0  0  0  0
 12 23  1  0  0  0  0
 12 41  1  0  0  0  0
 13 14  1  0  0  0  0
 13 42  1  0  0  0  0
 14 23  1  0  0  0  0
 14 43  1  0  0  0  0
 15 44  1  0  0  0  0
 15 45  1  0  0  0  0
 15 46  1  0  0  0  0
 16 21  1  0  0  0  0
 16 47  1  0  0  0  0
 16 48  1  0  0  0  0
 16 49  1  0  0  0  0
 17 18  1  0  0  0  0
M  END
$$$$
