
  -OEChem-05262117483D

 37 40  0     0  0  0  0  0  0999 V2000
   -2.4887   -5.2150    0.8625 C   0  0  0  0  0  0  0  0  0  0  0  0
   -1.1323   -0.5550    0.5236 C   0  0  0  0  0  0  0  0  0  0  0  0
   -1.4197   -4.3219    0.8513 C   0  0  0  0  0  0  0  0  0  0  0  0
   -0.6906   -1.8588    0.6713 C   0  0  0  0  0  0  0  0  0  0  0  0
   -3.8410   -4.7928    0.7346 C   0  0  0  0  0  0  0  0  0  0  0  0
   -2.5148   -0.1956    0.4078 C   0  0  0  0  0  0  0  0  0  0  0  0
   -1.6449   -2.9233    0.7097 C   0  0  0  0  0  0  0  0  0  0  0  0
   -2.9899   -2.5492    0.5901 C   0  0  0  0  0  0  0  0  0  0  0  0
   -4.0748   -3.4377    0.5975 C   0  0  0  0  0  0  0  0  0  0  0  0
   -3.4397   -1.2155    0.4416 C   0  0  0  0  0  0  0  0  0  0  0  0
   -5.9078    0.6631    1.4403 C   0  0  0  0  0  0  0  0  0  0  0  0
   -5.3296    1.9536    3.0545 C   0  0  0  0  0  0  0  0  0  0  0  0
   -5.3080   -2.6062    0.4348 C   0  0  0  0  0  0  0  0  0  0  0  0
   -3.2108    1.9510    4.3664 C   0  0  0  0  0  0  0  0  0  0  0  0
   -5.1621    3.4492    5.0428 C   0  0  0  0  0  0  0  0  0  0  0  0
   -5.7460   -0.1435    0.1908 C   0  0  0  0  0  0  0  0  0  0  0  0
   -4.4075    2.7939    3.8795 C   0  0  0  0  0  0  0  0  0  0  0  0
   -6.9492    0.7887    2.1989 N   0  0  0  0  0  0  0  0  0  0  0  0
   -6.5711    1.6347    3.2558 N   0  0  0  0  0  0  0  0  0  0  0  0
   -4.8413   -1.2663    0.3529 N   0  0  0  0  0  0  0  0  0  0  0  0
   -6.4809   -2.9354    0.3626 O   0  0  0  0  0  0  0  0  0  0  0  0
   -4.8349    1.3782    1.9082 O   0  0  0  0  0  0  0  0  0  0  0  0
   -2.2833   -6.2765    0.9727 H   0  0  0  0  0  0  0  0  0  0  0  0
   -0.3998    0.2476    0.4960 H   0  0  0  0  0  0  0  0  0  0  0  0
   -0.4047   -4.6995    0.9514 H   0  0  0  0  0  0  0  0  0  0  0  0
    0.3720   -2.0698    0.7573 H   0  0  0  0  0  0  0  0  0  0  0  0
   -4.6533   -5.5138    0.7457 H   0  0  0  0  0  0  0  0  0  0  0  0
   -2.7974    0.8473    0.3133 H   0  0  0  0  0  0  0  0  0  0  0  0
   -3.5494    1.1572    5.0402 H   0  0  0  0  0  0  0  0  0  0  0  0
   -2.5071    2.5860    4.9134 H   0  0  0  0  0  0  0  0  0  0  0  0
   -2.6788    1.4867    3.5311 H   0  0  0  0  0  0  0  0  0  0  0  0
   -5.5700    2.6911    5.7171 H   0  0  0  0  0  0  0  0  0  0  0  0
   -5.9956    4.0591    4.6854 H   0  0  0  0  0  0  0  0  0  0  0  0
   -4.4786    4.0879    5.6107 H   0  0  0  0  0  0  0  0  0  0  0  0
   -6.7250   -0.5492   -0.0704 H   0  0  0  0  0  0  0  0  0  0  0  0
   -5.3956    0.4970   -0.6268 H   0  0  0  0  0  0  0  0  0  0  0  0
   -4.0192    3.5812    3.2193 H   0  0  0  0  0  0  0  0  0  0  0  0
  1  3  1  0  0  0  0
  1  5  2  0  0  0  0
  1 23  1  0  0  0  0
  2  4  2  0  0  0  0
  2  6  1  0  0  0  0
  2 24  1  0  0  0  0
  3  7  2  0  0  0  0
  3 25  1  0  0  0  0
  4  7  1  0  0  0  0
  4 26  1  0  0  0  0
  5  9  1  0  0  0  0
  5 27  1  0  0  0  0
  6 10  2  0  0  0  0
  6 28  1  0  0  0  0
  7  8  1  0  0  0  0
  8  9  2  0  0  0  0
  8 10  1  0  0  0  0
  9 13  1  0  0  0  0
 10 20  1  0  0  0  0
 11 16  1  0  0  0  0
 11 18  2  0  0  0  0
 11 22  1  0  0  0  0
 12 17  1  0  0  0  0
 12 19  2  0  0  0  0
 12 22  1  0  0  0  0
 13 20  1  0  0  0  0
 13 21  2  0  0  0  0
 14 17  1  0  0  0  0
 14 29  1  0  0  0  0
 14 30  1  0  0  0  0
 14 31  1  0  0  0  0
 15 17  1  0  0  0  0
 15 32  1  0  0  0  0
 15 33  1  0  0  0  0
 15 34  1  0  0  0  0
 16 20  1  0  0  0  0
 16 35  1  0  0  0  0
 16 36  1  0  0  0  0
 17 37  1  0  0  0  0
 18 19  1  0  0  0  0
M  END
$$$$
