
  -OEChem-05262117483D

 23 23  0     0  0  0  0  0  0999 V2000
    3.7913   -2.0066   -0.3187 C   0  0  0  0  0  0  0  0  0  0  0  0
    1.5184   -1.1365    0.0015 C   0  0  0  0  0  0  0  0  0  0  0  0
    0.5132   -0.6189    0.8174 C   0  0  0  0  0  0  0  0  0  0  0  0
    2.0381   -0.7677    2.7412 C   0  0  0  0  0  0  0  0  0  0  0  0
    2.7698   -1.4732    0.5348 C   0  0  0  0  0  0  0  0  0  0  0  0
    3.0414   -1.2898    1.9153 C   0  0  0  0  0  0  0  0  0  0  0  0
    0.8056   -0.4533    2.1690 C   0  0  0  0  0  0  0  0  0  0  0  0
    6.0363   -1.9609    3.9059 C   0  0  0  0  0  0  0  0  0  0  0  0
    4.6070   -1.4851    3.7293 C   0  0  0  0  0  0  0  0  0  0  0  0
    4.6047   -2.4376   -1.0324 N   0  0  0  0  0  0  0  0  0  0  0  0
    0.1630    0.7989    4.4248 O   0  0  0  0  0  0  0  0  0  0  0  0
   -1.4559    0.9218    2.4522 O   0  0  0  0  0  0  0  0  0  0  0  0
    4.2736   -1.6358    2.3323 O   0  0  0  0  0  0  0  0  0  0  0  0
   -0.4608    0.2153    3.2450 S   0  0  0  0  0  0  0  0  0  0  0  0
   -1.3869   -1.6011    3.8983 Cl  0  0  0  0  0  0  0  0  0  0  0  0
    1.3415   -1.2823   -1.0592 H   0  0  0  0  0  0  0  0  0  0  0  0
   -0.4590   -0.3493    0.4204 H   0  0  0  0  0  0  0  0  0  0  0  0
    2.1982   -0.5988    3.7984 H   0  0  0  0  0  0  0  0  0  0  0  0
    6.1344   -3.0079    3.6074 H   0  0  0  0  0  0  0  0  0  0  0  0
    6.7213   -1.3605    3.3015 H   0  0  0  0  0  0  0  0  0  0  0  0
    6.3252   -1.8685    4.9573 H   0  0  0  0  0  0  0  0  0  0  0  0
    4.4998   -0.4307    4.0108 H   0  0  0  0  0  0  0  0  0  0  0  0
    3.9105   -2.0831    4.3294 H   0  0  0  0  0  0  0  0  0  0  0  0
  1  5  1  0  0  0  0
  1 10  3  0  0  0  0
  2  3  1  0  0  0  0
  2  5  2  0  0  0  0
  2 16  1  0  0  0  0
  3  7  2  0  0  0  0
  3 17  1  0  0  0  0
  4  6  2  0  0  0  0
  4  7  1  0  0  0  0
  4 18  1  0  0  0  0
  5  6  1  0  0  0  0
  6 13  1  0  0  0  0
  7 14  1  0  0  0  0
  8  9  1  0  0  0  0
  8 19  1  0  0  0  0
  8 20  1  0  0  0  0
  8 21  1  0  0  0  0
  9 13  1  0  0  0  0
  9 22  1  0  0  0  0
  9 23  1  0  0  0  0
 11 14  2  0  0  0  0
 12 14  2  0  0  0  0
 14 15  1  0  0  0  0
M  END
$$$$
