
  -OEChem-05262117483D

 37 39  0     0  0  0  0  0  0999 V2000
    6.9215   -1.2696   -3.9517 C   0  0  0  0  0  0  0  0  0  0  0  0
    6.8083   -2.4150   -4.3355 C   0  0  0  0  0  0  0  0  0  0  0  0
    1.6360   -1.8505   -0.1103 C   0  0  0  0  0  0  0  0  0  0  0  0
    0.4739   -1.9029   -0.8901 C   0  0  0  0  0  0  0  0  0  0  0  0
    7.6189   -5.8860   -5.4518 C   0  0  0  0  0  0  0  0  0  0  0  0
    7.7914   -4.5672   -5.0303 C   0  0  0  0  0  0  0  0  0  0  0  0
    2.7117   -2.6818   -0.4210 C   0  0  0  0  0  0  0  0  0  0  0  0
    0.4080   -2.7841   -1.9687 C   0  0  0  0  0  0  0  0  0  0  0  0
    6.3402   -6.4267   -5.5953 C   0  0  0  0  0  0  0  0  0  0  0  0
    5.3713   -4.3038   -4.9512 C   0  0  0  0  0  0  0  0  0  0  0  0
    6.6603   -3.7708   -4.7744 C   0  0  0  0  0  0  0  0  0  0  0  0
    2.6527   -3.5722   -1.5041 C   0  0  0  0  0  0  0  0  0  0  0  0
    1.4889   -3.6194   -2.2874 C   0  0  0  0  0  0  0  0  0  0  0  0
    5.2059   -5.6369   -5.3432 C   0  0  0  0  0  0  0  0  0  0  0  0
    2.6897   -5.7060   -5.1082 C   0  0  0  0  0  0  0  0  0  0  0  0
    3.8351   -4.4599   -1.8293 C   0  0  0  0  0  0  0  0  0  0  0  0
    1.3489   -4.5665   -3.4628 C   0  0  0  0  0  0  0  0  0  0  0  0
    3.4289   -5.6331   -2.7174 C   0  0  0  0  0  0  0  0  0  0  0  0
    2.6327   -5.1478   -3.8507 N   0  0  0  0  0  0  0  0  0  0  0  0
    3.9286   -6.2295   -5.5130 N   0  0  0  0  0  0  0  0  0  0  0  0
    1.7170   -5.7741   -5.8603 O   0  0  0  0  0  0  0  0  0  0  0  0
    7.0211   -0.2579   -3.6195 H   0  0  0  0  0  0  0  0  0  0  0  0
    1.6999   -1.1680    0.7333 H   0  0  0  0  0  0  0  0  0  0  0  0
   -0.3714   -1.2597   -0.6596 H   0  0  0  0  0  0  0  0  0  0  0  0
    8.4874   -6.5072   -5.6533 H   0  0  0  0  0  0  0  0  0  0  0  0
    8.7840   -4.1489   -4.8976 H   0  0  0  0  0  0  0  0  0  0  0  0
    3.6152   -2.6461    0.1849 H   0  0  0  0  0  0  0  0  0  0  0  0
   -0.4927   -2.8239   -2.5788 H   0  0  0  0  0  0  0  0  0  0  0  0
    6.2118   -7.4648   -5.8916 H   0  0  0  0  0  0  0  0  0  0  0  0
    4.5071   -3.6746   -4.7772 H   0  0  0  0  0  0  0  0  0  0  0  0
    4.6107   -3.8739   -2.3351 H   0  0  0  0  0  0  0  0  0  0  0  0
    4.2826   -4.8432   -0.9054 H   0  0  0  0  0  0  0  0  0  0  0  0
    0.6319   -5.3646   -3.2157 H   0  0  0  0  0  0  0  0  0  0  0  0
    0.9393   -4.0427   -4.3277 H   0  0  0  0  0  0  0  0  0  0  0  0
    4.3036   -6.1696   -3.0783 H   0  0  0  0  0  0  0  0  0  0  0  0
    2.8188   -6.3453   -2.1412 H   0  0  0  0  0  0  0  0  0  0  0  0
    3.8123   -6.7420   -6.3805 H   0  0  0  0  0  0  0  0  0  0  0  0
  1  2  3  0  0  0  0
  1 22  1  0  0  0  0
  2 11  1  0  0  0  0
  3  4  1  0  0  0  0
  3  7  2  0  0  0  0
  3 23  1  0  0  0  0
  4  8  2  0  0  0  0
  4 24  1  0  0  0  0
  5  6  2  0  0  0  0
  5  9  1  0  0  0  0
  5 25  1  0  0  0  0
  6 11  1  0  0  0  0
  6 26  1  0  0  0  0
  7 12  1  0  0  0  0
  7 27  1  0  0  0  0
  8 13  1  0  0  0  0
  8 28  1  0  0  0  0
  9 14  2  0  0  0  0
  9 29  1  0  0  0  0
 10 11  2  0  0  0  0
 10 14  1  0  0  0  0
 10 30  1  0  0  0  0
 12 13  2  0  0  0  0
 12 16  1  0  0  0  0
 13 17  1  0  0  0  0
 14 20  1  0  0  0  0
 15 19  1  0  0  0  0
 15 20  1  0  0  0  0
 15 21  2  0  0  0  0
 16 18  1  0  0  0  0
 16 31  1  0  0  0  0
 16 32  1  0  0  0  0
 17 19  1  0  0  0  0
 17 33  1  0  0  0  0
 17 34  1  0  0  0  0
 18 19  1  0  0  0  0
 18 35  1  0  0  0  0
 18 36  1  0  0  0  0
 20 37  1  0  0  0  0
M  END
$$$$
