
  -OEChem-05262117483D

 18 18  0     0  0  0  0  0  0999 V2000
    0.0506   -0.8847   -0.9040 C   0  0  0  0  0  0  0  0  0  0  0  0
    0.7122   -0.0730    0.9909 C   0  0  0  0  0  0  0  0  0  0  0  0
    0.0771    0.6553   -1.0451 C   0  0  0  0  0  0  0  0  0  0  0  0
    1.0943    2.3633    0.5407 C   0  0  0  0  0  0  0  0  0  0  0  0
    0.4749   -1.2113    0.3930 N   0  0  0  0  0  0  0  0  0  0  0  0
    0.4344    1.0846    0.3097 N   0  0  0  0  0  0  0  0  0  0  0  0
    1.2051   -0.0211    2.2820 N   0  0  0  0  0  0  0  0  0  0  0  0
   -0.2959   -1.6538   -1.7769 O   0  0  0  0  0  0  0  0  0  0  0  0
    2.7648   -2.2271    2.5677 O   0  0  0  0  0  0  0  0  0  0  0  0
    1.6800   -1.4144    3.1310 P   0  0  0  0  0  0  0  0  0  0  0  0
   -0.0273   -2.4376    3.5650 Cl  0  0  0  0  0  0  0  0  0  0  0  0
    2.1395   -0.4825    4.9152 Cl  0  0  0  0  0  0  0  0  0  0  0  0
    0.8379    0.9563   -1.7745 H   0  0  0  0  0  0  0  0  0  0  0  0
   -0.8952    1.0443   -1.3577 H   0  0  0  0  0  0  0  0  0  0  0  0
    2.1379    2.3602    0.1984 H   0  0  0  0  0  0  0  0  0  0  0  0
    1.0719    2.6298    1.6005 H   0  0  0  0  0  0  0  0  0  0  0  0
    0.5475    3.1413    0.0043 H   0  0  0  0  0  0  0  0  0  0  0  0
    1.1274    0.8464    2.8003 H   0  0  0  0  0  0  0  0  0  0  0  0
  1  3  1  0  0  0  0
  1  5  1  0  0  0  0
  1  8  2  0  0  0  0
  2  5  2  0  0  0  0
  2  6  1  0  0  0  0
  2  7  1  0  0  0  0
  3  6  1  0  0  0  0
  3 13  1  0  0  0  0
  3 14  1  0  0  0  0
  4  6  1  0  0  0  0
  4 15  1  0  0  0  0
  4 16  1  0  0  0  0
  4 17  1  0  0  0  0
  7 10  1  0  0  0  0
  7 18  1  0  0  0  0
  9 10  2  0  0  0  0
 10 11  1  0  0  0  0
 10 12  1  0  0  0  0
M  END
$$$$
