
  -OEChem-05262117483D

 18 18  0     0  0  0  0  0  0999 V2000
    0.2981   -0.5412   -1.2387 C   0  0  0  0  0  0  0  0  0  0  0  0
   -0.1497    0.0992    0.7808 C   0  0  0  0  0  0  0  0  0  0  0  0
    0.6189    0.9715   -1.1520 C   0  0  0  0  0  0  0  0  0  0  0  0
    0.6269    2.4885    0.9134 C   0  0  0  0  0  0  0  0  0  0  0  0
   -0.1557   -0.9650    0.0168 N   0  0  0  0  0  0  0  0  0  0  0  0
    0.1953    1.2921    0.2107 N   0  0  0  0  0  0  0  0  0  0  0  0
   -0.4859    0.0273    2.1180 N   0  0  0  0  0  0  0  0  0  0  0  0
    0.4349   -1.2173   -2.2383 O   0  0  0  0  0  0  0  0  0  0  0  0
   -2.3409   -1.9664    2.3444 O   0  0  0  0  0  0  0  0  0  0  0  0
   -1.0827   -1.3932    2.8375 P   0  0  0  0  0  0  0  0  0  0  0  0
   -1.1794   -0.6709    4.7700 Cl  0  0  0  0  0  0  0  0  0  0  0  0
    0.4913   -2.6828    2.8888 Cl  0  0  0  0  0  0  0  0  0  0  0  0
    1.6915    1.1434   -1.2968 H   0  0  0  0  0  0  0  0  0  0  0  0
    0.0579    1.5397   -1.8989 H   0  0  0  0  0  0  0  0  0  0  0  0
    1.6357    2.3878    1.3370 H   0  0  0  0  0  0  0  0  0  0  0  0
   -0.0757    2.7448    1.7125 H   0  0  0  0  0  0  0  0  0  0  0  0
    0.6255    3.3258    0.2129 H   0  0  0  0  0  0  0  0  0  0  0  0
   -0.4156    0.8559    2.6966 H   0  0  0  0  0  0  0  0  0  0  0  0
  1  3  1  0  0  0  0
  1  5  1  0  0  0  0
  1  8  2  0  0  0  0
  2  5  2  0  0  0  0
  2  6  1  0  0  0  0
  2  7  1  0  0  0  0
  3  6  1  0  0  0  0
  3 13  1  0  0  0  0
  3 14  1  0  0  0  0
  4  6  1  0  0  0  0
  4 15  1  0  0  0  0
  4 16  1  0  0  0  0
  4 17  1  0  0  0  0
  7 10  1  0  0  0  0
  7 18  1  0  0  0  0
  9 10  2  0  0  0  0
 10 11  1  0  0  0  0
 10 12  1  0  0  0  0
M  END
$$$$
