
  -OEChem-05262117483D

 64 65  0     0  0  0  0  0  0999 V2000
    3.3530   -1.4954   -4.4205 C   0  0  0  0  0  0  0  0  0  0  0  0
    4.5575   -0.9485   -3.9719 C   0  0  0  0  0  0  0  0  0  0  0  0
    3.9452   -0.9188   -6.6867 C   0  0  0  0  0  0  0  0  0  0  0  0
    3.0357   -1.4878   -5.7850 C   0  0  0  0  0  0  0  0  0  0  0  0
    1.7563   -2.0708   -6.2954 C   0  0  0  0  0  0  0  0  0  0  0  0
    5.1632   -0.3619   -6.2732 C   0  0  0  0  0  0  0  0  0  0  0  0
    0.5965   -1.2747   -6.3571 C   0  0  0  0  0  0  0  0  0  0  0  0
    1.7340   -3.3988   -6.7615 C   0  0  0  0  0  0  0  0  0  0  0  0
    5.4316   -0.4008   -4.9036 C   0  0  0  0  0  0  0  0  0  0  0  0
   -0.5565   -1.8611   -6.9169 C   0  0  0  0  0  0  0  0  0  0  0  0
    0.5344   -3.8771   -7.3248 C   0  0  0  0  0  0  0  0  0  0  0  0
    7.2884   -0.7819   -7.5853 C   0  0  0  0  0  0  0  0  0  0  0  0
   -0.2864    4.6769   -5.6990 C   0  0  0  0  0  0  0  0  0  0  0  0
   -2.9493   -1.7991   -6.1627 C   0  0  0  0  0  0  0  0  0  0  0  0
   -2.3355   -1.0870   -8.5204 C   0  0  0  0  0  0  0  0  0  0  0  0
    0.1102   -5.1289   -9.4509 C   0  0  0  0  0  0  0  0  0  0  0  0
   -0.7076   -6.0649   -7.2352 C   0  0  0  0  0  0  0  0  0  0  0  0
    6.1588    0.2105   -7.2540 C   0  0  0  0  0  0  0  0  0  0  0  0
    0.6185    0.1658   -5.8905 C   0  0  0  0  0  0  0  0  0  0  0  0
    2.9754   -4.2628   -6.6875 C   0  0  0  0  0  0  0  0  0  0  0  0
   -0.3822    3.1861   -6.0424 C   0  0  0  0  0  0  0  0  0  0  0  0
    0.8526    1.1552   -7.0484 C   0  0  0  0  0  0  0  0  0  0  0  0
    0.9290    2.6224   -6.6061 C   0  0  0  0  0  0  0  0  0  0  0  0
   -1.8852   -1.1291   -7.0501 C   0  0  0  0  0  0  0  0  0  0  0  0
    0.3944   -5.2596   -7.9438 C   0  0  0  0  0  0  0  0  0  0  0  0
   -0.5649   -3.1172   -7.3813 N   0  0  0  0  0  0  0  0  0  0  0  0
    3.6615   -4.3647   -7.9477 O   0  0  0  0  0  0  0  0  0  0  0  0
    6.6057    0.1266   -4.4559 F   0  0  0  0  0  0  0  0  0  0  0  0
    2.6573   -1.9309   -3.7085 H   0  0  0  0  0  0  0  0  0  0  0  0
    4.8247   -0.9438   -2.9194 H   0  0  0  0  0  0  0  0  0  0  0  0
    3.6920   -0.8905   -7.7451 H   0  0  0  0  0  0  0  0  0  0  0  0
    7.8494   -1.0486   -6.6850 H   0  0  0  0  0  0  0  0  0  0  0  0
    7.9880   -0.3453   -8.3055 H   0  0  0  0  0  0  0  0  0  0  0  0
    6.8855   -1.7043   -8.0169 H   0  0  0  0  0  0  0  0  0  0  0  0
   -0.0369    5.2712   -6.5857 H   0  0  0  0  0  0  0  0  0  0  0  0
   -1.2316    5.0574   -5.2970 H   0  0  0  0  0  0  0  0  0  0  0  0
    0.4925    4.8590   -4.9495 H   0  0  0  0  0  0  0  0  0  0  0  0
   -3.0949   -2.8394   -6.4680 H   0  0  0  0  0  0  0  0  0  0  0  0
   -3.9072   -1.2739   -6.2462 H   0  0  0  0  0  0  0  0  0  0  0  0
   -2.6478   -1.7935   -5.1093 H   0  0  0  0  0  0  0  0  0  0  0  0
   -2.4729   -2.1011   -8.9049 H   0  0  0  0  0  0  0  0  0  0  0  0
   -1.5907   -0.5853   -9.1481 H   0  0  0  0  0  0  0  0  0  0  0  0
   -3.2826   -0.5445   -8.6151 H   0  0  0  0  0  0  0  0  0  0  0  0
   -0.8214   -4.5802   -9.6175 H   0  0  0  0  0  0  0  0  0  0  0  0
    0.0184   -6.1199   -9.9090 H   0  0  0  0  0  0  0  0  0  0  0  0
    0.9225   -4.5949   -9.9546 H   0  0  0  0  0  0  0  0  0  0  0  0
   -1.6699   -5.5529   -7.3240 H   0  0  0  0  0  0  0  0  0  0  0  0
   -0.4868   -6.1885   -6.1690 H   0  0  0  0  0  0  0  0  0  0  0  0
   -0.8006   -7.0615   -7.6808 H   0  0  0  0  0  0  0  0  0  0  0  0
    5.6317    0.4890   -8.1726 H   0  0  0  0  0  0  0  0  0  0  0  0
    6.5933    1.1277   -6.8440 H   0  0  0  0  0  0  0  0  0  0  0  0
   -0.3153    0.4056   -5.3756 H   0  0  0  0  0  0  0  0  0  0  0  0
    1.4146    0.3037   -5.1540 H   0  0  0  0  0  0  0  0  0  0  0  0
    3.6557   -3.8841   -5.9185 H   0  0  0  0  0  0  0  0  0  0  0  0
    2.7214   -5.2890   -6.4178 H   0  0  0  0  0  0  0  0  0  0  0  0
   -0.6738    2.6294   -5.1439 H   0  0  0  0  0  0  0  0  0  0  0  0
   -1.1851    3.0286   -6.7754 H   0  0  0  0  0  0  0  0  0  0  0  0
    0.0594    1.0363   -7.7975 H   0  0  0  0  0  0  0  0  0  0  0  0
    1.7888    0.8811   -7.5486 H   0  0  0  0  0  0  0  0  0  0  0  0
    1.7255    2.7347   -5.8574 H   0  0  0  0  0  0  0  0  0  0  0  0
    1.2325    3.2332   -7.4668 H   0  0  0  0  0  0  0  0  0  0  0  0
   -1.7631   -0.0984   -6.7101 H   0  0  0  0  0  0  0  0  0  0  0  0
    1.3393   -5.7960   -7.8391 H   0  0  0  0  0  0  0  0  0  0  0  0
    3.9442   -3.4685   -8.1908 H   0  0  0  0  0  0  0  0  0  0  0  0
  1  2  1  0  0  0  0
  1  4  2  0  0  0  0
  1 29  1  0  0  0  0
  2  9  2  0  0  0  0
  2 30  1  0  0  0  0
  3  4  1  0  0  0  0
  3  6  2  0  0  0  0
  3 31  1  0  0  0  0
  4  5  1  0  0  0  0
  5  7  1  0  0  0  0
  5  8  2  0  0  0  0
  6  9  1  0  0  0  0
  6 18  1  0  0  0  0
  7 10  2  0  0  0  0
  7 19  1  0  0  0  0
  8 11  1  0  0  0  0
  8 20  1  0  0  0  0
  9 28  1  0  0  0  0
 10 24  1  0  0  0  0
 10 26  1  0  0  0  0
 11 25  1  0  0  0  0
 11 26  2  0  0  0  0
 12 18  1  0  0  0  0
 12 32  1  0  0  0  0
 12 33  1  0  0  0  0
 12 34  1  0  0  0  0
 13 21  1  0  0  0  0
 13 35  1  0  0  0  0
 13 36  1  0  0  0  0
 13 37  1  0  0  0  0
 14 24  1  0  0  0  0
 14 38  1  0  0  0  0
 14 39  1  0  0  0  0
 14 40  1  0  0  0  0
 15 24  1  0  0  0  0
 15 41  1  0  0  0  0
 15 42  1  0  0  0  0
 15 43  1  0  0  0  0
 16 25  1  0  0  0  0
 16 44  1  0  0  0  0
 16 45  1  0  0  0  0
 16 46  1  0  0  0  0
 17 25  1  0  0  0  0
 17 47  1  0  0  0  0
 17 48  1  0  0  0  0
 17 49  1  0  0  0  0
 18 50  1  0  0  0  0
 18 51  1  0  0  0  0
 19 22  1  0  0  0  0
 19 52  1  0  0  0  0
 19 53  1  0  0  0  0
 20 27  1  0  0  0  0
 20 54  1  0  0  0  0
 20 55  1  0  0  0  0
 21 23  1  0  0  0  0
 21 56  1  0  0  0  0
 21 57  1  0  0  0  0
 22 23  1  0  0  0  0
 22 58  1  0  0  0  0
 22 59  1  0  0  0  0
 23 60  1  0  0  0  0
 23 61  1  0  0  0  0
 24 62  1  0  0  0  0
 25 63  1  0  0  0  0
 27 64  1  0  0  0  0
M  END
$$$$
