38
0 1 C11F3H20NO2S
C                     0.031771540432    -1.407412690215    -2.393626869557
C                     1.244642664518    -2.325283373502    -2.076837149642
C                    -0.789604620425    -1.393454709932    -1.089168838951
C                     1.024344842315    -2.791218430513    -0.620286344253
C                     1.504843734597    -4.211207556900    -0.322382652064
C                     3.026224304654    -4.359193599022    -0.449929303800
C                     7.102000956222    -7.946145606873     0.090666217550
C                     7.387993869544    -9.414584870434     0.427021460480
C                     3.470177440877    -5.787459189278    -0.132938073203
C                     5.597597946865    -7.675127112129     0.132506052928
C                     8.866714009122    -9.739668887491     0.424380379356
N                    -0.434085791030    -2.674972818495    -0.463050501452
O                     5.887852207845    -5.102712657721     0.787876290613
O                     5.652912782487    -5.715347930316    -1.682305979249
F                     9.079807787408   -11.047527775985     0.719162000087
F                     9.438608557988    -9.504115182643    -0.783064106520
F                     9.550310220550    -9.007796241308     1.339846724819
S                     5.277494762678    -5.927026175439    -0.271955514123
H                     0.333650898670    -0.399215156015    -2.689513803895
H                    -0.560555403098    -1.827091742812    -3.210759563654
H                     1.256497456437    -3.190799364400    -2.747149610763
H                     2.202004737058    -1.810682608397    -2.191088451506
H                    -0.495671995736    -0.526943421369    -0.470967833915
H                    -1.868317991923    -1.333286647233    -1.264063457567
H                     1.555929772251    -2.092514447850     0.053865027651
H                     1.195387542971    -4.490138827892     0.694262873506
H                     0.993046137596    -4.897884802094    -1.007615772650
H                     3.528514746223    -3.667278298500     0.234112289628
H                     3.346942128171    -4.103415825995    -1.463992312288
H                     7.607337283606    -7.292804853752     0.806495475439
H                     7.486613996286    -7.709171235843    -0.904669172410
H                     7.008585567811    -9.673407582049     1.420265626772
H                     6.913196560076   -10.085110722266    -0.295675316371
H                     3.212028181348    -6.074251959246     0.891032439736
H                     3.043219635124    -6.509122112613    -0.835918797290
H                     5.053979040315    -8.273997321285    -0.604297937471
H                     5.180917270553    -7.850580621256     1.128920324094
H                    -0.702199764359    -2.697671382812     0.518981077093
