
  -OEChem-05262117483D

 64 65  0     0  0  0  0  0  0999 V2000
    3.9671   -0.7185   -6.5955 C   0  0  0  0  0  0  0  0  0  0  0  0
    5.1245   -0.0956   -6.1211 C   0  0  0  0  0  0  0  0  0  0  0  0
    3.2090   -1.0349   -4.3290 C   0  0  0  0  0  0  0  0  0  0  0  0
    2.9957   -1.1951   -5.7047 C   0  0  0  0  0  0  0  0  0  0  0  0
    1.7474   -1.8205   -6.2424 C   0  0  0  0  0  0  0  0  0  0  0  0
    4.3493   -0.4030   -3.8176 C   0  0  0  0  0  0  0  0  0  0  0  0
    0.5697   -1.0501   -6.3415 C   0  0  0  0  0  0  0  0  0  0  0  0
    1.7678   -3.1482   -6.7048 C   0  0  0  0  0  0  0  0  0  0  0  0
    5.2847    0.0530   -4.7505 C   0  0  0  0  0  0  0  0  0  0  0  0
   -0.5375   -1.6473   -6.9735 C   0  0  0  0  0  0  0  0  0  0  0  0
    0.6004   -3.6497   -7.3159 C   0  0  0  0  0  0  0  0  0  0  0  0
    4.1174    1.2697   -1.9371 C   0  0  0  0  0  0  0  0  0  0  0  0
    2.9120    4.1621   -4.8296 C   0  0  0  0  0  0  0  0  0  0  0  0
   -2.9719   -1.5913   -6.3633 C   0  0  0  0  0  0  0  0  0  0  0  0
   -2.2226   -0.9166   -8.6931 C   0  0  0  0  0  0  0  0  0  0  0  0
    0.2742   -4.9566   -9.4286 C   0  0  0  0  0  0  0  0  0  0  0  0
   -0.6084   -5.8532   -7.2218 C   0  0  0  0  0  0  0  0  0  0  0  0
    4.5360   -0.1568   -2.3395 C   0  0  0  0  0  0  0  0  0  0  0  0
    0.5464    0.3726   -5.8235 C   0  0  0  0  0  0  0  0  0  0  0  0
    3.0080   -4.0035   -6.5511 C   0  0  0  0  0  0  0  0  0  0  0  0
    2.6252    2.8099   -5.4896 C   0  0  0  0  0  0  0  0  0  0  0  0
    0.9743    1.4146   -6.8765 C   0  0  0  0  0  0  0  0  0  0  0  0
    1.2989    2.7854   -6.2638 C   0  0  0  0  0  0  0  0  0  0  0  0
   -1.8613   -0.9293   -7.1980 C   0  0  0  0  0  0  0  0  0  0  0  0
    0.5060   -5.0469   -7.9099 C   0  0  0  0  0  0  0  0  0  0  0  0
   -0.5021   -2.9042   -7.4384 N   0  0  0  0  0  0  0  0  0  0  0  0
    3.7266   -4.1875   -7.7827 O   0  0  0  0  0  0  0  0  0  0  0  0
    6.4035    0.6828   -4.2944 F   0  0  0  0  0  0  0  0  0  0  0  0
    3.8055   -0.8069   -7.6670 H   0  0  0  0  0  0  0  0  0  0  0  0
    5.8859    0.2842   -6.7955 H   0  0  0  0  0  0  0  0  0  0  0  0
    2.4587   -1.4035   -3.6326 H   0  0  0  0  0  0  0  0  0  0  0  0
    4.7093    2.0164   -2.4747 H   0  0  0  0  0  0  0  0  0  0  0  0
    4.2629    1.4278   -0.8635 H   0  0  0  0  0  0  0  0  0  0  0  0
    3.0621    1.4473   -2.1687 H   0  0  0  0  0  0  0  0  0  0  0  0
    2.1325    4.4205   -4.1032 H   0  0  0  0  0  0  0  0  0  0  0  0
    3.8705    4.1503   -4.2994 H   0  0  0  0  0  0  0  0  0  0  0  0
    2.9510    4.9675   -5.5725 H   0  0  0  0  0  0  0  0  0  0  0  0
   -3.0896   -2.6386   -6.6566 H   0  0  0  0  0  0  0  0  0  0  0  0
   -3.9278   -1.0776   -6.5150 H   0  0  0  0  0  0  0  0  0  0  0  0
   -2.7351   -1.5630   -5.2939 H   0  0  0  0  0  0  0  0  0  0  0  0
   -2.3316   -1.9379   -9.0674 H   0  0  0  0  0  0  0  0  0  0  0  0
   -1.4438   -0.4209   -9.2831 H   0  0  0  0  0  0  0  0  0  0  0  0
   -3.1650   -0.3815   -8.8539 H   0  0  0  0  0  0  0  0  0  0  0  0
   -0.6587   -4.4265   -9.6419 H   0  0  0  0  0  0  0  0  0  0  0  0
    0.2139   -5.9596   -9.8652 H   0  0  0  0  0  0  0  0  0  0  0  0
    1.0961   -4.4223   -9.9160 H   0  0  0  0  0  0  0  0  0  0  0  0
   -1.5750   -5.3600   -7.3584 H   0  0  0  0  0  0  0  0  0  0  0  0
   -0.4252   -5.9470   -6.1453 H   0  0  0  0  0  0  0  0  0  0  0  0
   -0.6690   -6.8620   -7.6451 H   0  0  0  0  0  0  0  0  0  0  0  0
    3.9433   -0.8867   -1.7786 H   0  0  0  0  0  0  0  0  0  0  0  0
    5.5839   -0.3162   -2.0671 H   0  0  0  0  0  0  0  0  0  0  0  0
   -0.4482    0.6291   -5.4476 H   0  0  0  0  0  0  0  0  0  0  0  0
    1.2142    0.4460   -4.9644 H   0  0  0  0  0  0  0  0  0  0  0  0
    3.6677   -3.5782   -5.7882 H   0  0  0  0  0  0  0  0  0  0  0  0
    2.7435   -5.0110   -6.2246 H   0  0  0  0  0  0  0  0  0  0  0  0
    3.4421    2.5529   -6.1756 H   0  0  0  0  0  0  0  0  0  0  0  0
    2.6283    2.0291   -4.7213 H   0  0  0  0  0  0  0  0  0  0  0  0
    0.1786    1.5113   -7.6254 H   0  0  0  0  0  0  0  0  0  0  0  0
    1.8554    1.0440   -7.4129 H   0  0  0  0  0  0  0  0  0  0  0  0
    1.3426    3.5379   -7.0619 H   0  0  0  0  0  0  0  0  0  0  0  0
    0.4791    3.0937   -5.5995 H   0  0  0  0  0  0  0  0  0  0  0  0
   -1.7651    0.1091   -6.8725 H   0  0  0  0  0  0  0  0  0  0  0  0
    1.4552   -5.5640   -7.7585 H   0  0  0  0  0  0  0  0  0  0  0  0
    4.0307   -3.3121   -8.0706 H   0  0  0  0  0  0  0  0  0  0  0  0
  1  2  1  0  0  0  0
  1  4  2  0  0  0  0
  1 29  1  0  0  0  0
  2  9  2  0  0  0  0
  2 30  1  0  0  0  0
  3  4  1  0  0  0  0
  3  6  2  0  0  0  0
  3 31  1  0  0  0  0
  4  5  1  0  0  0  0
  5  7  1  0  0  0  0
  5  8  2  0  0  0  0
  6  9  1  0  0  0  0
  6 18  1  0  0  0  0
  7 10  2  0  0  0  0
  7 19  1  0  0  0  0
  8 11  1  0  0  0  0
  8 20  1  0  0  0  0
  9 28  1  0  0  0  0
 10 24  1  0  0  0  0
 10 26  1  0  0  0  0
 11 25  1  0  0  0  0
 11 26  2  0  0  0  0
 12 18  1  0  0  0  0
 12 32  1  0  0  0  0
 12 33  1  0  0  0  0
 12 34  1  0  0  0  0
 13 21  1  0  0  0  0
 13 35  1  0  0  0  0
 13 36  1  0  0  0  0
 13 37  1  0  0  0  0
 14 24  1  0  0  0  0
 14 38  1  0  0  0  0
 14 39  1  0  0  0  0
 14 40  1  0  0  0  0
 15 24  1  0  0  0  0
 15 41  1  0  0  0  0
 15 42  1  0  0  0  0
 15 43  1  0  0  0  0
 16 25  1  0  0  0  0
 16 44  1  0  0  0  0
 16 45  1  0  0  0  0
 16 46  1  0  0  0  0
 17 25  1  0  0  0  0
 17 47  1  0  0  0  0
 17 48  1  0  0  0  0
 17 49  1  0  0  0  0
 18 50  1  0  0  0  0
 18 51  1  0  0  0  0
 19 22  1  0  0  0  0
 19 52  1  0  0  0  0
 19 53  1  0  0  0  0
 20 27  1  0  0  0  0
 20 54  1  0  0  0  0
 20 55  1  0  0  0  0
 21 23  1  0  0  0  0
 21 56  1  0  0  0  0
 21 57  1  0  0  0  0
 22 23  1  0  0  0  0
 22 58  1  0  0  0  0
 22 59  1  0  0  0  0
 23 60  1  0  0  0  0
 23 61  1  0  0  0  0
 24 62  1  0  0  0  0
 25 63  1  0  0  0  0
 27 64  1  0  0  0  0
M  END
$$$$
