27
0 1 C10H13N3O
C                     4.649799799890     0.562967784415    -0.803519822023
C                     4.557267592368     1.595049557390    -1.734629571894
C                     2.257236677070     1.739778106313    -1.606364408633
C                     1.770810412641    -0.891712241948     0.876172868488
C                     2.207406424563     0.703367632004    -0.655138050600
C                     1.150693659100     0.044626297358     0.082667868055
C                     3.441085383960     0.115827456186    -0.258064141375
C                    -0.327148130976     0.297783262039    -0.013648734413
C                    -2.533560496149    -0.281276124005    -1.089371947748
C                    -1.023060645643    -0.503220872691    -1.129620102745
N                     3.401786154828     2.177013083842    -2.134684378681
N                     3.149155747931    -0.857183132613     0.670551458716
N                    -0.537931484518    -0.065481091854    -2.447520488653
O                    -3.037173044644    -0.834716199744     0.132562928895
H                     5.613300560911     0.142573501192    -0.527661393134
H                     5.463549321201     1.986153289324    -2.193532350618
H                     1.343255911957     2.219789160709    -1.952501688098
H                     1.338656816943    -1.586653928105     1.584740317476
H                    -0.811676744760     0.039953138702     0.931860170782
H                    -0.510004326562     1.363534712934    -0.195628676039
H                    -2.998172678926    -0.776134620907    -1.956283611788
H                    -2.743077973134     0.795172464283    -1.160010792288
H                    -0.841253427459    -1.573888199952    -0.937299265824
H                     3.825917376386    -1.426884956330     1.157692784435
H                    -0.921863716933    -0.667340787118    -3.175180900114
H                     0.473508900547    -0.177666221299    -2.491808334850
H                    -3.982571076630    -0.631698744023     0.190154205501
