27
0 1 C10H13N3O
C                    -2.091056199502    -1.579998318157    -0.703921553541
C                    -0.724675042352    -1.564770323151    -0.423575410858
C                    -2.778431318310    -2.809324387529    -0.811546418997
C                     1.238471447514    -4.582045844290     0.058927724235
C                    -0.001390630084    -5.126969056245    -0.188591920913
C                    -0.890145977948    -4.008219115966    -0.395951508486
C                    -0.119585392272    -2.812162809419    -0.266240125075
C                    -0.369278595771    -6.581344250076    -0.209418473221
C                    -1.624562378983    -8.471399069070     0.895110094110
C                    -1.292341999774    -6.982369170984     0.954644832231
N                    -2.210825708401    -4.008243759748    -0.663588698440
N                     1.177095188575    -3.191907604357     0.014440129515
N                    -0.610258843577    -6.729349284367     2.237410820034
O                    -2.360758069595    -8.729935236516    -0.305561971241
H                    -2.635985692791    -0.650479269689    -0.840551770228
H                    -0.171961320544    -0.632280748995    -0.334452723855
H                    -3.845451916076    -2.807479210097    -1.029726251749
H                     2.175403342643    -5.083117977042     0.265401278653
H                    -0.884326721998    -6.824127700979    -1.142984118652
H                     0.541450407134    -7.189947017697    -0.159189448644
H                    -2.220386141396    -8.745284566564     1.779992595057
H                    -0.689143719006    -9.048553242527     0.925205661522
H                    -2.230416483753    -6.418488984514     0.846214146303
H                     1.962578047706    -2.569563681522     0.136628787908
H                    -1.281116388976    -6.806170056459     3.000945805639
H                    -0.280882236240    -5.764675755520     2.245621020333
H                    -2.538630553588    -9.680911754113    -0.351631932823
