
  -OEChem-05262117483D

 28 29  0     1  0  0  0  0  0999 V2000
    4.2633    0.0827   -0.1496 C   0  0  0  0  0  0  0  0  0  0  0  0
    4.3572    1.3792   -0.6503 C   0  0  0  0  0  0  0  0  0  0  0  0
    2.0849    1.6075   -0.9842 C   0  0  0  0  0  0  0  0  0  0  0  0
    1.1266   -1.7079    0.2455 C   0  0  0  0  0  0  0  0  0  0  0  0
    1.8468    0.3135   -0.4803 C   0  0  0  0  0  0  0  0  0  0  0  0
    0.6728   -0.5093   -0.2715 C   0  0  0  0  0  0  0  0  0  0  0  0
    2.9726   -0.4494   -0.0685 C   0  0  0  0  0  0  0  0  0  0  0  0
   -0.7526   -0.1318   -0.5585 C   0  0  0  0  0  0  0  0  0  0  0  0
   -2.6943    1.3981    0.1821 C   0  0  0  0  0  0  0  0  0  0  0  0
   -1.2027    1.0762    0.2807 C   0  0  1  0  0  0  0  0  0  0  0  0
    3.3057    2.1273   -1.0608 N   0  0  0  0  0  0  0  0  0  0  0  0
    2.5039   -1.6743    0.3652 N   0  0  0  0  0  0  0  0  0  0  0  0
   -0.8388    0.7950    1.7327 N   0  3  0  0  0  0  0  0  0  0  0  0
   -2.9089    1.7033   -1.1802 O   0  0  0  0  0  0  0  0  0  0  0  0
    5.1500   -0.4683    0.1491 H   0  0  0  0  0  0  0  0  0  0  0  0
    5.3320    1.8529   -0.7379 H   0  0  0  0  0  0  0  0  0  0  0  0
    1.2714    2.2324   -1.3548 H   0  0  0  0  0  0  0  0  0  0  0  0
    0.5734   -2.6040    0.4984 H   0  0  0  0  0  0  0  0  0  0  0  0
   -1.4221   -0.9795   -0.3690 H   0  0  0  0  0  0  0  0  0  0  0  0
   -0.8942    0.1506   -1.6054 H   0  0  0  0  0  0  0  0  0  0  0  0
   -3.2860    0.5257    0.5066 H   0  0  0  0  0  0  0  0  0  0  0  0
   -2.9430    2.2476    0.8369 H   0  0  0  0  0  0  0  0  0  0  0  0
   -0.6216    1.9598    0.0106 H   0  0  0  0  0  0  0  0  0  0  0  0
    3.0786   -2.4465    0.6777 H   0  0  0  0  0  0  0  0  0  0  0  0
    0.1092    0.3720    1.7325 H   0  0  0  0  0  0  0  0  0  0  0  0
   -1.4768    0.1118    2.1589 H   0  0  0  0  0  0  0  0  0  0  0  0
   -0.8351    1.6382    2.3176 H   0  0  0  0  0  0  0  0  0  0  0  0
   -3.8271    1.9882   -1.3143 H   0  0  0  0  0  0  0  0  0  0  0  0
  1  2  1  0  0  0  0
  1  7  2  0  0  0  0
  1 15  1  0  0  0  0
  2 11  2  0  0  0  0
  2 16  1  0  0  0  0
  3  5  2  0  0  0  0
  3 11  1  0  0  0  0
  3 17  1  0  0  0  0
  4  6  2  0  0  0  0
  4 12  1  0  0  0  0
  4 18  1  0  0  0  0
  5  6  1  0  0  0  0
  5  7  1  0  0  0  0
  6  8  1  0  0  0  0
  7 12  1  0  0  0  0
  8 10  1  0  0  0  0
  8 19  1  0  0  0  0
  8 20  1  0  0  0  0
  9 10  1  0  0  0  0
  9 14  1  0  0  0  0
  9 21  1  0  0  0  0
  9 22  1  0  0  0  0
 10 13  1  0  0  0  0
 10 23  1  0  0  0  0
 12 24  1  0  0  0  0
 13 25  1  0  0  0  0
 13 26  1  0  0  0  0
 13 27  1  0  0  0  0
 14 28  1  0  0  0  0
M  CHG  1  13   1
M  END
$$$$
