28
1 1 C10H14N3O
C                    -1.435856341004    -1.233786731628    -1.628622919765
C                    -0.568003424168    -1.085203391313    -0.543887453401
C                    -1.801523429315    -2.513615717118    -2.077650971274
C                     0.861747540060    -3.873738930411     1.281230939967
C                     0.092387435220    -4.547898869694     0.352956886723
C                    -0.529088975662    -3.526411187434    -0.440384941918
C                    -0.109813965741    -2.258127896161     0.053473473557
C                    -0.092386879584    -6.039189322863     0.254891771623
C                     0.097552109545    -8.129107082265    -1.193340674937
C                    -0.058833192018    -6.606263660019    -1.171248870502
N                    -1.359794366698    -3.641624761013    -1.502821891353
N                     0.740256887575    -2.508094372062     1.109492535323
N                    -1.320662521610    -6.224979816665    -1.907157000926
O                     1.349533250159    -8.406542274030    -0.591729036783
H                    -1.831278857491    -0.362962426544    -2.140075540851
H                    -0.270801754342    -0.100362881925    -0.193998995442
H                    -2.467424483995    -2.629526730386    -2.928237068564
H                     1.490748702708    -4.274798988686     2.065618449898
H                    -1.037421472662    -6.343400489897     0.729461677769
H                     0.702390045901    -6.542775608293     0.809419211278
H                    -0.733101326873    -8.596923750559    -0.640216417449
H                     0.061198757027    -8.486977897982    -2.233638241614
H                     0.766597387041    -6.158346462602    -1.730781839727
H                     1.216399762396    -1.808810024877     1.664663184586
H                    -1.286953848622    -6.526174149713    -2.886225525764
H                    -1.466886186658    -5.076478020155    -1.855566032962
H                    -2.139614923840    -6.670996908055    -1.480997263200
H                     1.516487189013    -9.362165020454    -0.613772262750
