
  -OEChem-05262117483D

 23 23  0     0  0  0  0  0  0999 V2000
    1.8542   -1.4268    0.2364 C   0  0  0  0  0  0  0  0  0  0  0  0
    0.7634   -0.7104    0.7233 C   0  0  0  0  0  0  0  0  0  0  0  0
    1.3237   -1.3858    2.9901 C   0  0  0  0  0  0  0  0  0  0  0  0
    2.6867   -2.1289    1.1178 C   0  0  0  0  0  0  0  0  0  0  0  0
    0.5023   -0.7024    2.0941 C   0  0  0  0  0  0  0  0  0  0  0  0
    2.4130   -2.0962    2.4965 C   0  0  0  0  0  0  0  0  0  0  0  0
   -2.1447   -0.9605    2.7155 N   0  0  0  0  0  0  0  0  0  0  0  0
    3.4429   -4.5196    3.1365 N   0  0  0  0  0  0  0  0  0  0  0  0
   -0.6326    0.5569    4.1081 O   0  0  0  0  0  0  0  0  0  0  0  0
   -1.2804    1.1963    1.6989 O   0  0  0  0  0  0  0  0  0  0  0  0
    4.8461   -2.3805    3.5053 O   0  0  0  0  0  0  0  0  0  0  0  0
    2.8155   -2.8985    4.9696 O   0  0  0  0  0  0  0  0  0  0  0  0
    3.7545   -2.8586    0.6950 O   0  0  0  0  0  0  0  0  0  0  0  0
   -0.9104    0.2062    2.7143 S   0  0  0  0  0  0  0  0  0  0  0  0
    3.4962   -2.9162    3.6730 S   0  0  0  0  0  0  0  0  0  0  0  0
    2.0641   -1.4396   -0.8312 H   0  0  0  0  0  0  0  0  0  0  0  0
    0.1244   -0.1505    0.0480 H   0  0  0  0  0  0  0  0  0  0  0  0
    1.1365   -1.3612    4.0590 H   0  0  0  0  0  0  0  0  0  0  0  0
   -2.4224   -1.1631    3.6753 H   0  0  0  0  0  0  0  0  0  0  0  0
   -2.9332   -0.6115    2.1718 H   0  0  0  0  0  0  0  0  0  0  0  0
    4.2847   -4.7409    2.6070 H   0  0  0  0  0  0  0  0  0  0  0  0
    3.3335   -5.1295    3.9466 H   0  0  0  0  0  0  0  0  0  0  0  0
    3.8578   -2.7646   -0.2659 H   0  0  0  0  0  0  0  0  0  0  0  0
  1  2  1  0  0  0  0
  1  4  2  0  0  0  0
  1 16  1  0  0  0  0
  2  5  2  0  0  0  0
  2 17  1  0  0  0  0
  3  5  1  0  0  0  0
  3  6  2  0  0  0  0
  3 18  1  0  0  0  0
  4  6  1  0  0  0  0
  4 13  1  0  0  0  0
  5 14  1  0  0  0  0
  6 15  1  0  0  0  0
  7 14  1  0  0  0  0
  7 19  1  0  0  0  0
  7 20  1  0  0  0  0
  8 15  1  0  0  0  0
  8 21  1  0  0  0  0
  8 22  1  0  0  0  0
  9 14  2  0  0  0  0
 10 14  2  0  0  0  0
 11 15  2  0  0  0  0
 12 15  2  0  0  0  0
 13 23  1  0  0  0  0
M  END
$$$$
