
  -OEChem-05262117483D

 28 29  0     1  0  0  0  0  0999 V2000
   -2.0150   -0.9497   -0.3572 C   0  0  0  0  0  0  0  0  0  0  0  0
   -0.6256   -0.8992   -0.2624 C   0  0  0  0  0  0  0  0  0  0  0  0
   -2.6892   -2.1825   -0.2504 C   0  0  0  0  0  0  0  0  0  0  0  0
    1.4657   -3.8283    0.1696 C   0  0  0  0  0  0  0  0  0  0  0  0
    0.2129   -4.4117    0.1483 C   0  0  0  0  0  0  0  0  0  0  0  0
   -0.7245   -3.3299   -0.0131 C   0  0  0  0  0  0  0  0  0  0  0  0
    0.0236   -2.1221   -0.0870 C   0  0  0  0  0  0  0  0  0  0  0  0
   -0.0485   -5.8922    0.1184 C   0  0  0  0  0  0  0  0  0  0  0  0
   -2.2913   -6.3747    1.4132 C   0  0  0  0  0  0  0  0  0  0  0  0
   -0.7489   -6.4941    1.3535 C   0  0  1  0  0  0  0  0  0  0  0  0
   -2.0721   -3.3571   -0.0766 N   0  0  0  0  0  0  0  0  0  0  0  0
    1.3573   -2.4603    0.0399 N   0  0  0  0  0  0  0  0  0  0  0  0
   -0.4336   -8.0057    1.3515 N   0  3  0  0  0  0  0  0  0  0  0  0
   -2.6963   -5.1334    1.8941 O   0  0  0  0  0  0  0  0  0  0  0  0
   -2.5911   -0.0409   -0.4969 H   0  0  0  0  0  0  0  0  0  0  0  0
   -0.0871    0.0429   -0.3218 H   0  0  0  0  0  0  0  0  0  0  0  0
   -3.7751   -2.2125   -0.2930 H   0  0  0  0  0  0  0  0  0  0  0  0
    2.4397   -4.2954    0.2437 H   0  0  0  0  0  0  0  0  0  0  0  0
    0.9251   -6.3838   -0.0080 H   0  0  0  0  0  0  0  0  0  0  0  0
   -0.6446   -6.1432   -0.7697 H   0  0  0  0  0  0  0  0  0  0  0  0
   -2.7047   -6.6035    0.4171 H   0  0  0  0  0  0  0  0  0  0  0  0
   -2.6753   -7.1297    2.1144 H   0  0  0  0  0  0  0  0  0  0  0  0
   -0.3218   -6.1124    2.2840 H   0  0  0  0  0  0  0  0  0  0  0  0
    2.1365   -1.8161    0.0089 H   0  0  0  0  0  0  0  0  0  0  0  0
   -0.8539   -8.4755    2.1632 H   0  0  0  0  0  0  0  0  0  0  0  0
    0.5765   -8.1886    1.3691 H   0  0  0  0  0  0  0  0  0  0  0  0
   -0.8128   -8.4544    0.5080 H   0  0  0  0  0  0  0  0  0  0  0  0
   -2.6486   -4.4791    1.1458 H   0  0  0  0  0  0  0  0  0  0  0  0
  1  2  1  0  0  0  0
  1  3  2  0  0  0  0
  1 15  1  0  0  0  0
  2  7  2  0  0  0  0
  2 16  1  0  0  0  0
  3 11  1  0  0  0  0
  3 17  1  0  0  0  0
  4  5  2  0  0  0  0
  4 12  1  0  0  0  0
  4 18  1  0  0  0  0
  5  6  1  0  0  0  0
  5  8  1  0  0  0  0
  6  7  1  0  0  0  0
  6 11  2  0  0  0  0
  7 12  1  0  0  0  0
  8 10  1  0  0  0  0
  8 19  1  0  0  0  0
  8 20  1  0  0  0  0
  9 10  1  0  0  0  0
  9 14  1  0  0  0  0
  9 21  1  0  0  0  0
  9 22  1  0  0  0  0
 10 13  1  0  0  0  0
 10 23  1  0  0  0  0
 12 24  1  0  0  0  0
 13 25  1  0  0  0  0
 13 26  1  0  0  0  0
 13 27  1  0  0  0  0
 14 28  1  0  0  0  0
M  CHG  1  13   1
M  END
$$$$
