
  -OEChem-05262117483D

 22 22  0     0  0  0  0  0  0999 V2000
    1.6623   -0.0166   -1.1771 C   0  0  0  0  0  0  0  0  0  0  0  0
    0.5925    0.3383   -0.3952 C   0  0  0  0  0  0  0  0  0  0  0  0
    1.7077   -0.5645    1.5878 C   0  0  0  0  0  0  0  0  0  0  0  0
    2.8548   -0.6682   -0.6445 C   0  0  0  0  0  0  0  0  0  0  0  0
    0.6047    0.0699    0.9989 C   0  0  0  0  0  0  0  0  0  0  0  0
    2.7861   -0.9246    0.7953 C   0  0  0  0  0  0  0  0  0  0  0  0
   -0.5092    2.2945    2.0644 N   0  0  0  0  0  0  0  0  0  0  0  0
    3.7325   -1.9005    3.1527 N   0  0  0  0  0  0  0  0  0  0  0  0
    3.8401   -0.9738   -1.3529 O   0  5  0  0  0  0  0  0  0  0  0  0
   -2.0273    0.4460    1.3069 O   0  0  0  0  0  0  0  0  0  0  0  0
   -0.5761    0.0220    3.3523 O   0  0  0  0  0  0  0  0  0  0  0  0
    4.3276   -3.1120    0.9763 O   0  0  0  0  0  0  0  0  0  0  0  0
    5.3730   -0.8498    1.5281 O   0  0  0  0  0  0  0  0  0  0  0  0
   -0.7306    0.5809    1.9934 S   0  0  0  0  0  0  0  0  0  0  0  0
    4.2023   -1.7419    1.4979 S   0  0  0  0  0  0  0  0  0  0  0  0
    1.6625    0.1805   -2.2463 H   0  0  0  0  0  0  0  0  0  0  0  0
   -0.2774    0.8238   -0.8308 H   0  0  0  0  0  0  0  0  0  0  0  0
    1.7112   -0.7749    2.6506 H   0  0  0  0  0  0  0  0  0  0  0  0
   -1.3505    2.6801    2.4994 H   0  0  0  0  0  0  0  0  0  0  0  0
    0.2900    2.4822    2.6721 H   0  0  0  0  0  0  0  0  0  0  0  0
    3.6091   -2.8937    3.3436 H   0  0  0  0  0  0  0  0  0  0  0  0
    4.5025   -1.5321    3.7089 H   0  0  0  0  0  0  0  0  0  0  0  0
  1  2  1  0  0  0  0
  1  4  2  0  0  0  0
  1 16  1  0  0  0  0
  2  5  2  0  0  0  0
  2 17  1  0  0  0  0
  3  5  1  0  0  0  0
  3  6  2  0  0  0  0
  3 18  1  0  0  0  0
  4  6  1  0  0  0  0
  4  9  1  0  0  0  0
  5 14  1  0  0  0  0
  6 15  1  0  0  0  0
  7 14  1  0  0  0  0
  7 19  1  0  0  0  0
  7 20  1  0  0  0  0
  8 15  1  0  0  0  0
  8 21  1  0  0  0  0
  8 22  1  0  0  0  0
 10 14  2  0  0  0  0
 11 14  2  0  0  0  0
 12 15  2  0  0  0  0
 13 15  2  0  0  0  0
M  CHG  1   9  -1
M  END
$$$$
