
  -OEChem-05262117483D

 29 31  0     1  0  0  0  0  0999 V2000
   -1.0940    1.3239   -1.9864 C   0  0  0  0  0  0  0  0  0  0  0  0
   -0.5058    2.3969   -1.3078 C   0  0  0  0  0  0  0  0  0  0  0  0
   -0.0278   -0.1346   -0.3508 C   0  0  0  0  0  0  0  0  0  0  0  0
    0.5749    0.9245    0.3363 C   0  0  0  0  0  0  0  0  0  0  0  0
    0.0554   -1.5272   -0.0550 C   0  0  0  0  0  0  0  0  0  0  0  0
   -0.8425    0.0391   -1.4897 C   0  0  0  0  0  0  0  0  0  0  0  0
    0.3058    2.1826   -0.1780 C   0  0  0  0  0  0  0  0  0  0  0  0
   -0.6871   -2.1911   -1.0103 C   0  0  0  0  0  0  0  0  0  0  0  0
    2.1563   -2.6206    0.6207 C   0  0  0  0  0  0  0  0  0  0  0  0
    1.4532    0.5641    1.5109 C   0  0  0  0  0  0  0  0  0  0  0  0
    1.0589   -0.8038    2.1200 C   0  0  0  0  0  0  0  0  0  0  0  0
    0.8702   -1.9891    1.1290 C   0  0  1  0  0  0  0  0  0  0  0  0
   -0.9400   -3.6513   -1.2018 C   0  0  0  0  0  0  0  0  0  0  0  0
   -1.2315   -1.2392   -1.8778 N   0  0  0  0  0  0  0  0  0  0  0  0
    2.3029   -3.8117    0.4153 O   0  0  0  0  0  0  0  0  0  0  0  0
    3.1439   -1.7206    0.3692 O   0  0  0  0  0  0  0  0  0  0  0  0
    0.8506    3.2810    0.4290 F   0  0  0  0  0  0  0  0  0  0  0  0
   -1.7164    1.5013   -2.8594 H   0  0  0  0  0  0  0  0  0  0  0  0
   -0.6639    3.4172   -1.6436 H   0  0  0  0  0  0  0  0  0  0  0  0
    2.4969    0.5341    1.1822 H   0  0  0  0  0  0  0  0  0  0  0  0
    1.3892    1.3311    2.2889 H   0  0  0  0  0  0  0  0  0  0  0  0
    1.7948   -1.0825    2.8811 H   0  0  0  0  0  0  0  0  0  0  0  0
    0.0989   -0.6844    2.6346 H   0  0  0  0  0  0  0  0  0  0  0  0
    0.3567   -2.7996    1.6539 H   0  0  0  0  0  0  0  0  0  0  0  0
   -2.0051   -3.8945   -1.1018 H   0  0  0  0  0  0  0  0  0  0  0  0
   -0.6123   -3.9878   -2.1928 H   0  0  0  0  0  0  0  0  0  0  0  0
   -0.3822   -4.2272   -0.4612 H   0  0  0  0  0  0  0  0  0  0  0  0
   -1.8296   -1.4601   -2.6613 H   0  0  0  0  0  0  0  0  0  0  0  0
    3.8911   -2.2335    0.0047 H   0  0  0  0  0  0  0  0  0  0  0  0
  1  2  1  0  0  0  0
  1  6  2  0  0  0  0
  1 18  1  0  0  0  0
  2  7  2  0  0  0  0
  2 19  1  0  0  0  0
  3  4  2  0  0  0  0
  3  5  1  0  0  0  0
  3  6  1  0  0  0  0
  4  7  1  0  0  0  0
  4 10  1  0  0  0  0
  5  8  2  0  0  0  0
  5 12  1  0  0  0  0
  6 14  1  0  0  0  0
  7 17  1  0  0  0  0
  8 13  1  0  0  0  0
  8 14  1  0  0  0  0
  9 12  1  0  0  0  0
  9 15  2  0  0  0  0
  9 16  1  0  0  0  0
 10 11  1  0  0  0  0
 10 20  1  0  0  0  0
 10 21  1  0  0  0  0
 11 12  1  0  0  0  0
 11 22  1  0  0  0  0
 11 23  1  0  0  0  0
 12 24  1  0  0  0  0
 13 25  1  0  0  0  0
 13 26  1  0  0  0  0
 13 27  1  0  0  0  0
 14 28  1  0  0  0  0
 16 29  1  0  0  0  0
M  END
$$$$
