57
1 1 C18FH30N4O3S
C                    -3.449738156327    -1.085236554849    -1.076702746810
C                    -2.486736367082    -0.074029293513    -0.757836456144
C                    -1.383482291312    -0.605881267436    -0.122401160086
C                    -4.733638758279    -0.900618199152    -1.747672530695
C                    -3.071430897741    -2.353176505364    -0.670283562753
C                    -5.071978024158    -3.360214056659    -1.540900350994
C                    -2.674811133690     1.379840239743    -1.090281322909
C                    -7.608009423332    -2.132499474771    -5.174744757064
C                    -5.557801026567    -3.499268566443    -4.696649615219
C                    -5.859150816004     0.139428526944    -5.041561256762
C                    -0.164926031239     0.102142737723     0.323810234592
C                    -2.684263286444    -5.574133583748    -1.431004336327
C                    -3.445902986827    -4.789622209307    -0.358047021145
C                    -6.613038027917    -2.024495808393    -2.890746545972
C                     3.069719374597     1.052029293143    -1.708970795552
C                     2.131490217411     0.966641094385    -0.499849029589
C                    -2.202320147842    -6.918405785829    -0.908188698288
C                    -6.284495493823    -2.185162825645    -4.398667165585
N                    -5.414656453205    -2.100517353560    -2.032547218486
N                    -3.852910684735    -3.454955097484    -0.831749283044
N                     4.252890919870     1.796799395562    -1.294995257266
N                     0.851800490195     0.238761450097    -0.835927518130
O                    -5.194705083321     0.195863175628    -2.042549387449
O                    -5.761730651505    -4.352339584662    -1.703781313401
O                    -5.348930553390    -1.171949919179    -4.809881525979
F                    -3.294232035074    -7.668547185106    -0.452448023278
S                    -1.513499174018    -2.357319650709     0.108669514187
H                    -3.587014794727     1.760981295210    -0.625486415241
H                    -1.833474699494     1.995556974737    -0.756676917748
H                    -2.810211304410     1.514005035680    -2.167125296534
H                    -8.197533458054    -1.242331541260    -4.937126022820
H                    -7.412567822020    -2.141440288878    -6.250738930298
H                    -8.216131110659    -3.009500140462    -4.934884925582
H                    -4.564699245987    -3.501234480947    -4.237487121611
H                    -5.420678394610    -3.594613599552    -5.776966240203
H                    -6.116155317057    -4.360384787507    -4.325117221957
H                    -4.986639747978     0.773795424798    -5.213450328742
H                    -6.403082339283     0.534515968421    -4.177373542998
H                    -6.498066198362     0.172500562705    -5.931794644202
H                    -0.366770729717     1.123765518924     0.648680628101
H                     0.371497054807    -0.414026445134     1.122403506744
H                    -1.809175760414    -5.007745033798    -1.774023544913
H                    -3.340994763710    -5.727836671241    -2.292114985155
H                    -2.842761597900    -4.652582181913     0.545284915162
H                    -4.351021404230    -5.324879909549    -0.076366886215
H                    -7.073041484655    -1.054571190583    -2.705738572970
H                    -7.298717049095    -2.808641484339    -2.572622976688
H                     3.274100705202     0.039477037966    -2.097120570337
H                     2.570897313928     1.608187868633    -2.510498429422
H                     1.861296043175     1.966140569232    -0.155849477886
H                     2.594179820006     0.425818026834     0.329085940879
H                    -1.513964040322    -6.802935630096    -0.062762285181
H                    -1.709834841394    -7.494895005787    -1.696483023022
H                     4.709211372015     2.233552070397    -2.091646729519
H                     4.937824669032     1.192797913747    -0.846517597682
H                     1.058704059307    -0.703615419233    -1.187169489683
H                     0.369093224994     0.713881398911    -1.607672873372
