64
0 1 C25FH35N2O
C                     4.347862999465     0.959116824170     3.645548170813
C                     5.878606910464    -0.868499851851     3.262173685886
C                     5.356959378200     1.689343242385     4.278743046980
C                     6.901913808722    -0.152543628474     3.888665955877
C                     4.594444609214    -0.319757991309     3.124342226348
C                     3.514312931664    -1.088899175536     2.435573180682
C                     3.061287269127    -0.695630489673     1.163108003001
C                     2.954056984658    -2.222211644019     3.056263250105
C                     6.620644775691     1.117137124560     4.383230722385
C                     2.021339795509    -1.445702132809     0.575761103867
C                     1.968239455386    -2.940381542671     2.356078661357
C                     1.174195567340     3.974008449600    -1.806297343311
C                     1.027415356037     4.019731842443    -0.278434802224
C                     2.074436426099     2.810042078830    -2.245465833824
C                     2.400509179022     4.064977081342     0.409186706784
C                     3.440570462783     2.870401746013    -1.547931232253
C                     3.309377235013     2.899268209393    -0.013882524905
C                    -0.029078594649    -0.513505992708    -0.507683524652
C                     1.353472900408    -2.272028402507    -1.713980002904
C                     1.340954753105    -5.323031805767     1.832633868657
C                    -0.101652439162    -3.917560994827     3.377647963910
C                     3.661355636031     0.496772382703     0.450170238184
C                     3.401950337350    -2.645510533326     4.431973394013
C                     1.383856541310    -1.072752317222    -0.753494901096
C                     1.330551774740    -4.212508830120     2.895551697299
N                     1.511230633650    -2.533056899364     1.165744945959
N                     2.738800305651     1.638422345063     0.486928845193
O                     4.415055519211    -3.662227524279     4.294629687693
F                     7.610756038267     1.819586433017     4.993984859956
H                     3.351998225915     1.386765058013     3.567546031765
H                     6.071831015841    -1.866509449429     2.881898311418
H                     5.175410440828     2.679092325494     4.686451481351
H                     7.900749605387    -0.564593369180     3.996185446275
H                     1.610598371371     4.920654090945    -2.156221801195
H                     0.188021954723     3.889919994739    -2.277994854390
H                     0.434563553383     4.892557188815     0.020388377702
H                     0.481487522315     3.130876697049     0.057565844349
H                     1.584235916342     1.862767880794    -1.996266670169
H                     2.211565138301     2.825828641548    -3.333296621739
H                     2.907068773613     5.004629502970     0.153895390492
H                     2.283442104053     4.064391874849     1.501727510547
H                     4.069346063646     2.029967458417    -1.861875952605
H                     3.972106883044     3.780246398546    -1.857191533059
H                     4.314252552351     3.066080201752     0.415867960660
H                    -0.656681327142    -1.262877089886    -0.014757381837
H                    -0.500816212069    -0.237031405750    -1.457438267322
H                     0.016774388401     0.379173437011     0.123346778594
H                     0.759771810665    -3.087793406352    -1.293697413115
H                     2.362875238822    -2.653414721027    -1.904269392015
H                     0.914314003878    -1.977698127603    -2.673742126932
H                     0.764438608611    -5.021622351599     0.954552199760
H                     0.904494829686    -6.241096019743     2.241497851427
H                     2.363239582624    -5.545063254847     1.509586284261
H                    -0.711157120545    -3.550402097751     2.545993250125
H                    -0.110242429944    -3.154987566548     4.164941217656
H                    -0.570606436284    -4.824016473705     3.776505427881
H                     4.640554110917     0.741744081916     0.887614616427
H                     3.850681404025     0.236078574556    -0.595386328655
H                     3.803725091782    -1.782752836305     4.974337960070
H                     2.551972793852    -3.033053320682     5.007006334163
H                     1.968807363077    -0.274549064550    -1.212220236118
H                     1.920614305483    -4.568719675137     3.743005621138
H                     2.444557397904     1.774777103845     1.451968173079
H                     4.712599360313    -3.905565685193     5.186138672674
