
  -OEChem-05262117483D

 29 30  0     1  0  0  0  0  0999 V2000
   -1.0546    1.0732   -4.4371 C   0  0  0  0  0  0  0  0  0  0  0  0
   -1.1105    0.7955   -3.0665 C   0  0  0  0  0  0  0  0  0  0  0  0
    0.1214    0.9097   -5.1598 C   0  0  0  0  0  0  0  0  0  0  0  0
    1.2427    0.1771   -3.1239 C   0  0  0  0  0  0  0  0  0  0  0  0
    0.0432    0.3466   -2.4055 C   0  0  0  0  0  0  0  0  0  0  0  0
    1.2717    0.4563   -4.4932 C   0  0  0  0  0  0  0  0  0  0  0  0
    0.9068   -0.6397   -0.2788 C   0  0  0  0  0  0  0  0  0  0  0  0
   -0.7092    0.2688    1.2380 C   0  0  0  0  0  0  0  0  0  0  0  0
   -1.1857    0.4499   -0.2103 C   0  0  0  0  0  0  0  0  0  0  0  0
    0.3409   -0.8391    1.1293 C   0  0  2  0  0  0  0  0  0  0  0  0
    3.5812   -0.1576   -4.6396 C   0  0  0  0  0  0  0  0  0  0  0  0
   -0.0104    0.0798   -1.0154 N   0  0  0  0  0  0  0  0  0  0  0  0
    1.4138   -0.7721    2.1153 N   0  0  0  0  0  0  0  0  0  0  0  0
    1.9906   -1.0813   -0.6496 O   0  0  0  0  0  0  0  0  0  0  0  0
    2.3913    0.3171   -5.2670 O   0  0  0  0  0  0  0  0  0  0  0  0
   -1.9511    1.4193   -4.9447 H   0  0  0  0  0  0  0  0  0  0  0  0
   -2.0474    0.9195   -2.5371 H   0  0  0  0  0  0  0  0  0  0  0  0
    0.1746    1.1207   -6.2233 H   0  0  0  0  0  0  0  0  0  0  0  0
    2.1166   -0.1759   -2.5999 H   0  0  0  0  0  0  0  0  0  0  0  0
   -0.2125    1.1763    1.5927 H   0  0  0  0  0  0  0  0  0  0  0  0
   -1.5332    0.0328    1.9160 H   0  0  0  0  0  0  0  0  0  0  0  0
   -2.0321   -0.2066   -0.4501 H   0  0  0  0  0  0  0  0  0  0  0  0
   -1.4807    1.4794   -0.4274 H   0  0  0  0  0  0  0  0  0  0  0  0
   -0.1638   -1.8222    1.1001 H   0  0  0  0  0  0  0  0  0  0  0  0
    4.3319   -0.2098   -5.4293 H   0  0  0  0  0  0  0  0  0  0  0  0
    3.4344   -1.1540   -4.2065 H   0  0  0  0  0  0  0  0  0  0  0  0
    3.9218    0.5310   -3.8571 H   0  0  0  0  0  0  0  0  0  0  0  0
    2.2390   -1.2190    1.7134 H   0  0  0  0  0  0  0  0  0  0  0  0
    1.1612   -1.2940    2.9509 H   0  0  0  0  0  0  0  0  0  0  0  0
  1  2  1  0  0  0  0
  1  3  2  0  0  0  0
  1 16  1  0  0  0  0
  2  5  2  0  0  0  0
  2 17  1  0  0  0  0
  3  6  1  0  0  0  0
  3 18  1  0  0  0  0
  4  5  1  0  0  0  0
  4  6  2  0  0  0  0
  4 19  1  0  0  0  0
  5 12  1  0  0  0  0
  6 15  1  0  0  0  0
  7 10  1  0  0  0  0
  7 12  1  0  0  0  0
  7 14  2  0  0  0  0
  8  9  1  0  0  0  0
  8 10  1  0  0  0  0
  8 20  1  0  0  0  0
  8 21  1  0  0  0  0
  9 12  1  0  0  0  0
  9 22  1  0  0  0  0
  9 23  1  0  0  0  0
 10 13  1  0  0  0  0
 10 24  1  0  0  0  0
 11 15  1  0  0  0  0
 11 25  1  0  0  0  0
 11 26  1  0  0  0  0
 11 27  1  0  0  0  0
 13 28  1  0  0  0  0
 13 29  1  0  0  0  0
M  END
$$$$
