
  -OEChem-05262117483D

 28 30  0     1  0  0  0  0  0999 V2000
   -1.1693    1.6186   -1.7986 C   0  0  0  0  0  0  0  0  0  0  0  0
   -0.5281    2.6522   -1.0993 C   0  0  0  0  0  0  0  0  0  0  0  0
   -0.2246    0.0832   -0.1563 C   0  0  0  0  0  0  0  0  0  0  0  0
    0.4379    1.0976    0.5471 C   0  0  0  0  0  0  0  0  0  0  0  0
   -0.1945   -1.3190    0.1216 C   0  0  0  0  0  0  0  0  0  0  0  0
   -1.0057    0.3171   -1.3105 C   0  0  0  0  0  0  0  0  0  0  0  0
    0.2504    2.3741    0.0395 C   0  0  0  0  0  0  0  0  0  0  0  0
   -0.9325   -1.9263   -0.8691 C   0  0  0  0  0  0  0  0  0  0  0  0
    1.9116   -2.5437    0.8604 C   0  0  0  0  0  0  0  0  0  0  0  0
    1.3033    0.6476    1.7010 C   0  0  0  0  0  0  0  0  0  0  0  0
    0.7757   -0.6696    2.3176 C   0  0  0  0  0  0  0  0  0  0  0  0
    0.5713   -1.8294    1.3102 C   0  0  1  0  0  0  0  0  0  0  0  0
   -1.1906   -3.3764   -1.1149 C   0  0  0  0  0  0  0  0  0  0  0  0
   -1.4787   -0.9295   -1.7126 N   0  0  0  0  0  0  0  0  0  0  0  0
    2.9891   -1.9980    1.2149 O   0  5  0  0  0  0  0  0  0  0  0  0
    1.7289   -3.6050    0.1994 O   0  0  0  0  0  0  0  0  0  0  0  0
    0.8596    3.4455    0.6591 F   0  0  0  0  0  0  0  0  0  0  0  0
   -1.7618    1.8405   -2.6837 H   0  0  0  0  0  0  0  0  0  0  0  0
   -0.6136    3.6835   -1.4304 H   0  0  0  0  0  0  0  0  0  0  0  0
    2.3171    0.4513    1.3330 H   0  0  0  0  0  0  0  0  0  0  0  0
    1.3714    1.4309    2.4642 H   0  0  0  0  0  0  0  0  0  0  0  0
    1.4906   -1.0003    3.0757 H   0  0  0  0  0  0  0  0  0  0  0  0
   -0.1815   -0.4595    2.8187 H   0  0  0  0  0  0  0  0  0  0  0  0
   -0.0135   -2.6127    1.8081 H   0  0  0  0  0  0  0  0  0  0  0  0
   -2.1960   -3.6815   -0.7893 H   0  0  0  0  0  0  0  0  0  0  0  0
   -1.0994   -3.6225   -2.1820 H   0  0  0  0  0  0  0  0  0  0  0  0
   -0.4276   -3.9462   -0.5760 H   0  0  0  0  0  0  0  0  0  0  0  0
   -1.8015   -1.1313   -2.6485 H   0  0  0  0  0  0  0  0  0  0  0  0
  1  2  1  0  0  0  0
  1  6  2  0  0  0  0
  1 18  1  0  0  0  0
  2  7  2  0  0  0  0
  2 19  1  0  0  0  0
  3  4  2  0  0  0  0
  3  5  1  0  0  0  0
  3  6  1  0  0  0  0
  4  7  1  0  0  0  0
  4 10  1  0  0  0  0
  5  8  2  0  0  0  0
  5 12  1  0  0  0  0
  6 14  1  0  0  0  0
  7 17  1  0  0  0  0
  8 13  1  0  0  0  0
  8 14  1  0  0  0  0
  9 12  1  0  0  0  0
  9 15  1  0  0  0  0
  9 16  2  0  0  0  0
 10 11  1  0  0  0  0
 10 20  1  0  0  0  0
 10 21  1  0  0  0  0
 11 12  1  0  0  0  0
 11 22  1  0  0  0  0
 11 23  1  0  0  0  0
 12 24  1  0  0  0  0
 13 25  1  0  0  0  0
 13 26  1  0  0  0  0
 13 27  1  0  0  0  0
 14 28  1  0  0  0  0
M  CHG  1  15  -1
M  END
$$$$
