
  -OEChem-05262117483D

 64 66  0     0  0  0  0  0  0999 V2000
   -0.4143    5.3302   -1.7668 C   0  0  0  0  0  0  0  0  0  0  0  0
    1.5788    6.5211   -2.4295 C   0  0  0  0  0  0  0  0  0  0  0  0
   -1.2091    6.3314   -2.3307 C   0  0  0  0  0  0  0  0  0  0  0  0
    0.8012    7.5342   -2.9963 C   0  0  0  0  0  0  0  0  0  0  0  0
    0.9862    5.4066   -1.8173 C   0  0  0  0  0  0  0  0  0  0  0  0
    1.8230    4.3144   -1.2350 C   0  0  0  0  0  0  0  0  0  0  0  0
    2.5480    3.4508   -2.0769 C   0  0  0  0  0  0  0  0  0  0  0  0
    1.8743    4.1317    0.1602 C   0  0  0  0  0  0  0  0  0  0  0  0
   -0.5836    7.4149   -2.9393 C   0  0  0  0  0  0  0  0  0  0  0  0
    3.3429    2.4574   -1.4712 C   0  0  0  0  0  0  0  0  0  0  0  0
    2.6323    3.0567    0.6594 C   0  0  0  0  0  0  0  0  0  0  0  0
    4.5887    4.9079   -8.2892 C   0  0  0  0  0  0  0  0  0  0  0  0
    3.4255    3.9653   -7.9522 C   0  0  0  0  0  0  0  0  0  0  0  0
    4.6406    6.0915   -7.3131 C   0  0  0  0  0  0  0  0  0  0  0  0
    3.4872    3.4931   -6.4924 C   0  0  0  0  0  0  0  0  0  0  0  0
    4.6974    5.6099   -5.8572 C   0  0  0  0  0  0  0  0  0  0  0  0
    3.5289    4.6773   -5.5154 C   0  0  0  0  0  0  0  0  0  0  0  0
    3.6410    0.0778   -2.2015 C   0  0  0  0  0  0  0  0  0  0  0  0
    5.6666    1.5459   -1.7638 C   0  0  0  0  0  0  0  0  0  0  0  0
    4.0787    3.1245    2.7056 C   0  0  0  0  0  0  0  0  0  0  0  0
    2.4370    1.2178    2.3686 C   0  0  0  0  0  0  0  0  0  0  0  0
    2.4655    3.5724   -3.5827 C   0  0  0  0  0  0  0  0  0  0  0  0
    1.1353    5.0638    1.0861 C   0  0  0  0  0  0  0  0  0  0  0  0
    4.2162    1.5039   -2.2720 C   0  0  0  0  0  0  0  0  0  0  0  0
    2.7068    2.7139    2.1401 C   0  0  0  0  0  0  0  0  0  0  0  0
    3.3579    2.2715   -0.1458 N   0  0  0  0  0  0  0  0  0  0  0  0
    3.6720    4.2118   -4.1297 N   0  0  0  0  0  0  0  0  0  0  0  0
   -0.1369    4.4720    1.4185 O   0  0  0  0  0  0  0  0  0  0  0  0
   -1.3498    8.3924   -3.4910 F   0  0  0  0  0  0  0  0  0  0  0  0
   -0.8810    4.4824   -1.2754 H   0  0  0  0  0  0  0  0  0  0  0  0
    2.6615    6.6065   -2.4548 H   0  0  0  0  0  0  0  0  0  0  0  0
   -2.2933    6.2798   -2.3028 H   0  0  0  0  0  0  0  0  0  0  0  0
    1.2510    8.4008   -3.4712 H   0  0  0  0  0  0  0  0  0  0  0  0
    4.4989    5.2700   -9.3203 H   0  0  0  0  0  0  0  0  0  0  0  0
    5.5338    4.3506   -8.2312 H   0  0  0  0  0  0  0  0  0  0  0  0
    2.4749    4.4884   -8.1250 H   0  0  0  0  0  0  0  0  0  0  0  0
    3.4305    3.0989   -8.6236 H   0  0  0  0  0  0  0  0  0  0  0  0
    5.5067    6.7275   -7.5297 H   0  0  0  0  0  0  0  0  0  0  0  0
    3.7487    6.7171   -7.4556 H   0  0  0  0  0  0  0  0  0  0  0  0
    2.6258    2.8518   -6.2754 H   0  0  0  0  0  0  0  0  0  0  0  0
    4.3870    2.8855   -6.3291 H   0  0  0  0  0  0  0  0  0  0  0  0
    5.6353    5.0680   -5.6786 H   0  0  0  0  0  0  0  0  0  0  0  0
    4.6929    6.4713   -5.1751 H   0  0  0  0  0  0  0  0  0  0  0  0
    2.5881    5.2495   -5.6384 H   0  0  0  0  0  0  0  0  0  0  0  0
    3.6169   -0.2725   -1.1651 H   0  0  0  0  0  0  0  0  0  0  0  0
    4.2558   -0.6142   -2.7881 H   0  0  0  0  0  0  0  0  0  0  0  0
    2.6187    0.0405   -2.5949 H   0  0  0  0  0  0  0  0  0  0  0  0
    5.7169    1.2460   -0.7135 H   0  0  0  0  0  0  0  0  0  0  0  0
    6.0814    2.5554   -1.8539 H   0  0  0  0  0  0  0  0  0  0  0  0
    6.2940    0.8674   -2.3525 H   0  0  0  0  0  0  0  0  0  0  0  0
    4.8774    2.5869    2.1851 H   0  0  0  0  0  0  0  0  0  0  0  0
    4.1430    2.8905    3.7742 H   0  0  0  0  0  0  0  0  0  0  0  0
    4.2580    4.1986    2.5808 H   0  0  0  0  0  0  0  0  0  0  0  0
    3.1865    0.6088    1.8569 H   0  0  0  0  0  0  0  0  0  0  0  0
    1.4499    0.9362    1.9876 H   0  0  0  0  0  0  0  0  0  0  0  0
    2.4686    0.9875    3.4393 H   0  0  0  0  0  0  0  0  0  0  0  0
    2.3699    2.5742   -4.0210 H   0  0  0  0  0  0  0  0  0  0  0  0
    1.5522    4.1201   -3.8584 H   0  0  0  0  0  0  0  0  0  0  0  0
    1.7209    5.2387    1.9971 H   0  0  0  0  0  0  0  0  0  0  0  0
    0.9851    6.0324    0.5969 H   0  0  0  0  0  0  0  0  0  0  0  0
    4.2274    1.8334   -3.3121 H   0  0  0  0  0  0  0  0  0  0  0  0
    1.9280    3.2685    2.6685 H   0  0  0  0  0  0  0  0  0  0  0  0
    3.9002    5.0107   -3.5416 H   0  0  0  0  0  0  0  0  0  0  0  0
   -0.6099    5.0926    1.9962 H   0  0  0  0  0  0  0  0  0  0  0  0
  1  3  1  0  0  0  0
  1  5  2  0  0  0  0
  1 30  1  0  0  0  0
  2  4  2  0  0  0  0
  2  5  1  0  0  0  0
  2 31  1  0  0  0  0
  3  9  2  0  0  0  0
  3 32  1  0  0  0  0
  4  9  1  0  0  0  0
  4 33  1  0  0  0  0
  5  6  1  0  0  0  0
  6  7  1  0  0  0  0
  6  8  2  0  0  0  0
  7 10  2  0  0  0  0
  7 22  1  0  0  0  0
  8 11  1  0  0  0  0
  8 23  1  0  0  0  0
  9 29  1  0  0  0  0
 10 24  1  0  0  0  0
 10 26  1  0  0  0  0
 11 25  1  0  0  0  0
 11 26  2  0  0  0  0
 12 13  1  0  0  0  0
 12 14  1  0  0  0  0
 12 34  1  0  0  0  0
 12 35  1  0  0  0  0
 13 15  1  0  0  0  0
 13 36  1  0  0  0  0
 13 37  1  0  0  0  0
 14 16  1  0  0  0  0
 14 38  1  0  0  0  0
 14 39  1  0  0  0  0
 15 17  1  0  0  0  0
 15 40  1  0  0  0  0
 15 41  1  0  0  0  0
 16 17  1  0  0  0  0
 16 42  1  0  0  0  0
 16 43  1  0  0  0  0
 17 27  1  0  0  0  0
 17 44  1  0  0  0  0
 18 24  1  0  0  0  0
 18 45  1  0  0  0  0
 18 46  1  0  0  0  0
 18 47  1  0  0  0  0
 19 24  1  0  0  0  0
 19 48  1  0  0  0  0
 19 49  1  0  0  0  0
 19 50  1  0  0  0  0
 20 25  1  0  0  0  0
 20 51  1  0  0  0  0
 20 52  1  0  0  0  0
 20 53  1  0  0  0  0
 21 25  1  0  0  0  0
 21 54  1  0  0  0  0
 21 55  1  0  0  0  0
 21 56  1  0  0  0  0
 22 27  1  0  0  0  0
 22 57  1  0  0  0  0
 22 58  1  0  0  0  0
 23 28  1  0  0  0  0
 23 59  1  0  0  0  0
 23 60  1  0  0  0  0
 24 61  1  0  0  0  0
 25 62  1  0  0  0  0
 27 63  1  0  0  0  0
 28 64  1  0  0  0  0
M  END
$$$$
