
  -OEChem-05262117483D

 18 18  0     1  0  0  0  0  0999 V2000
    1.4573    0.6846    1.6423 C   0  0  0  0  0  0  0  0  0  0  0  0
    0.1513    0.4524    1.1145 C   0  0  0  0  0  0  0  0  0  0  0  0
    1.5253    0.0558    2.8725 C   0  0  0  0  0  0  0  0  0  0  0  0
   -0.5425   -0.3066    2.0414 C   0  0  0  0  0  0  0  0  0  0  0  0
   -1.9411   -0.8471    2.0078 C   0  0  2  0  0  0  0  0  0  0  0  0
   -1.9654   -2.3120    1.5450 C   0  0  0  0  0  0  0  0  0  0  0  0
    0.3028   -0.5332    3.1104 N   0  0  0  0  0  0  0  0  0  0  0  0
   -2.7685   -0.0655    1.0921 N   0  0  0  0  0  0  0  0  0  0  0  0
   -3.2463   -2.7758    1.4998 F   0  0  0  0  0  0  0  0  0  0  0  0
   -1.4214   -2.5119    0.3364 F   0  0  0  0  0  0  0  0  0  0  0  0
   -1.2970   -3.0956    2.4364 F   0  0  0  0  0  0  0  0  0  0  0  0
    2.2549    1.2484    1.1762 H   0  0  0  0  0  0  0  0  0  0  0  0
   -0.2430    0.7816    0.1628 H   0  0  0  0  0  0  0  0  0  0  0  0
    2.3296   -0.0143    3.5918 H   0  0  0  0  0  0  0  0  0  0  0  0
   -2.3328   -0.8891    3.0398 H   0  0  0  0  0  0  0  0  0  0  0  0
    0.0855   -1.1208    3.9034 H   0  0  0  0  0  0  0  0  0  0  0  0
   -2.6978    0.9188    1.3372 H   0  0  0  0  0  0  0  0  0  0  0  0
   -3.7445   -0.3427    1.1698 H   0  0  0  0  0  0  0  0  0  0  0  0
  1  2  1  0  0  0  0
  1  3  2  0  0  0  0
  1 12  1  0  0  0  0
  2  4  2  0  0  0  0
  2 13  1  0  0  0  0
  3  7  1  0  0  0  0
  3 14  1  0  0  0  0
  4  5  1  0  0  0  0
  4  7  1  0  0  0  0
  5  6  1  0  0  0  0
  5  8  1  0  0  0  0
  5 15  1  0  0  0  0
  6  9  1  0  0  0  0
  6 10  1  0  0  0  0
  6 11  1  0  0  0  0
  7 16  1  0  0  0  0
  8 17  1  0  0  0  0
  8 18  1  0  0  0  0
M  END
$$$$
