29
0 1 C14ClH11O2S
C                     1.905642839714    -1.031525655353    -0.318773711113
C                     0.789345148964    -0.634658548582     0.430694236078
C                     3.002080679085    -1.612253605936     0.324481151919
C                     0.768975250129    -0.816794359355     1.811221310797
C                     2.981930140080    -1.793829187380     1.708820593893
C                     2.497385719773     0.578489647401     7.335062866129
C                     0.115046327122     0.484564333246     7.836036466084
C                     2.571998399410     1.844331267398     7.915364934893
C                     0.186038185779     1.752196503712     8.417489960957
C                     1.867870636093    -1.400033943733     2.472821488282
C                     1.268753317055    -0.085313986947     7.294654841405
C                     1.413160115651     2.419801180921     8.447424388617
C                     1.906291981399    -1.614830397321     3.922199566461
C                     0.942932209062    -1.323201513867     4.808767295736
O                     2.480914253574    -2.361933419806     6.688847097850
O                    -0.068948525527    -2.343677023001     7.013398307540
S                     1.169431511915    -1.711891874922     6.531945425166
Cl                    1.505614396536     4.009631066599     9.176292874608
H                     1.916896967873    -0.888596129025    -1.396001877976
H                    -0.064949533346    -0.183781530732    -0.067179560196
H                     3.870146812003    -1.923896225502    -0.250002623997
H                    -0.104958516119    -0.505038940375     2.375951615164
H                     3.834922623110    -2.248011869429     2.207510815351
H                     3.385730055698     0.102129016157     6.931930597523
H                    -0.819302246575    -0.067927319346     7.818740896340
H                     3.516160411017     2.377186725358     7.963016919372
H                    -0.696228676884     2.213257462896     8.849576377608
H                     2.813350330706    -2.069417238465     4.319146790661
H                    -0.025637947927    -0.887630878043     4.584721179055
