22
0 1 C7Cl2H5N3O2S3
C                     2.460310220283     0.041434665556     1.027944988340
C                     1.068865944535     0.298672893599     1.254141241989
C                     3.196901153354     0.252168726240     2.157039401153
C                     0.783681804495     0.703228887031     2.536929592821
C                    -0.001623161134    -4.610894014014     1.130450011365
C                    -0.841553550314    -2.407815978571     0.726288937593
C                     0.763955612695    -5.855656013286     1.451177719912
N                    -1.174578024878    -4.600757545167     0.567592221725
N                    -1.658799551835    -3.339024949169     0.323735731733
N                    -1.177343817195    -1.051988456538     0.681629836539
O                     0.605523437807    -0.500097277203    -1.170469429513
O                    -0.956850379344     1.275824082400    -0.209309690262
S                     2.222158451126     0.770083553588     3.514955569761
S                     0.631826222813    -2.998506473327     1.465091736153
S                    -0.123717234392     0.090106813737    -0.051674620298
Cl                    4.901290136821     0.056568488185     2.341402275384
Cl                   -0.738946316711     1.102247226166     3.217640513134
H                     2.858423036667    -0.291553422783     0.077283437019
H                     1.701680665086    -5.896876907123     0.887737025699
H                     1.006908934774    -5.911977248710     2.516804687159
H                     0.151272476021    -6.717422413221     1.180233802112
H                    -2.133460608755    -0.898972791408     0.355331135530
