22
0 1 BrC8H9N2O2
C                     1.820713834480    -0.895052196831     0.240280892497
C                     0.844495865565    -0.352520786492     1.081177104172
C                     2.057506179134    -1.184165207780     3.002828496444
C                     3.033728725432    -1.744463118539     2.169900158948
C                     2.921581506242    -1.586038685513     0.767976803860
C                     0.973468501714    -0.496507418382     2.459065537274
C                     4.167740147050    -2.466499090640     2.806822368884
C                     3.833403461173    -1.963039215062    -1.409903723141
N                     4.463523553159    -3.652053647895     2.387528017536
N                     4.759512534030    -1.846955404268     3.901178313981
O                     5.561997909858    -4.163868728911     3.148930180853
O                     3.925143617413    -2.095142304836     0.004572858407
Br                   -0.353642382881     0.252074765535     3.626121302810
H                     1.712942265227    -0.762863353890    -0.829701658287
H                    -0.001339675610     0.179358752273     0.657656023938
H                     2.147358802597    -1.309855193646     4.076433042981
H                     4.725182633455    -2.448313788793    -1.807897464069
H                     3.825237627092    -0.909492892566    -1.716708144263
H                     2.941114712405    -2.466771860325    -1.800836271539
H                     4.816880688356    -0.837574174732     3.840959243891
H                     5.619735710341    -2.291952797631     4.203627781288
H                     5.709135109399    -5.027212113977     2.733061601055
