27
0 1 C10H10N2O3S2
C                     2.711583504598    -0.399895677908     2.286790541647
C                     3.037214664432    -0.227867474656    -0.100024801189
C                     1.758332281719     0.618559300341     2.240314240760
C                     2.086699843367     0.790336403715    -0.167786006516
C                     3.363758665537    -0.836741588476     1.123098972602
C                     1.460431955097     1.205722193976     1.009440814889
C                     2.326825612857     6.553154609639     3.055161751866
C                     1.346464392761     4.643672430508     1.992917856860
C                     1.383123265741     6.086285068009     4.151003107977
C                     4.368368886259    -1.962794602896     1.178119882034
N                     1.289738744237     3.872192346511     0.964518210044
N                     2.219848555559     5.717242104267     1.956623459976
O                     3.072082362514     7.511117372398     3.121774891359
O                    -0.382583502583     2.523876860116    -0.369006815647
O                    -0.544049799677     2.483531712228     2.174842832849
S                     0.476091687509     4.605880959544     3.552772589400
S                     0.260687479187     2.526888217118     0.941444072785
H                     2.947387885983    -0.865381140669     3.240854808268
H                     3.530401887408    -0.557509220943    -1.011430171945
H                     1.241666847058     0.947379922351     3.136569982364
H                     1.824539118950     1.253390291901    -1.113946434693
H                     1.963573059615     5.850060848009     5.045507860400
H                     0.684404952959     6.891076915627     4.389001616830
H                     3.874927467718    -2.927547905208     1.009975209787
H                     5.138038723811    -1.849861534381     0.409282001016
H                     4.862197704852    -2.011471794136     2.152650130195
H                     2.780532088335     5.871025034018     1.123599182652
