35
0 1 C15H14N2O2S2
C                     0.179489226206     0.106546434051    -1.576814147753
C                     0.283687050085    -1.191765028625    -1.047594650532
C                     3.728846770477    -5.244984660197    -6.311011785960
C                     2.865644554016    -5.765622226004    -4.115903408022
C                    -0.052890230311     0.311882320967    -2.938143096611
C                     2.429874931685    -5.125363162164    -6.803863552918
C                     1.558477109632    -5.646462403336    -4.586423674436
C                     3.966013751429    -5.565091342245    -4.964063248968
C                     0.159274111706    -2.329697034237    -1.849261992477
C                    -0.079745391657    -2.128937630592    -3.221663101326
C                    -0.178232917174    -0.819312639616    -3.746648778687
C                     1.358342256806    -5.323978546131    -5.929852484463
C                    -0.429225203098    -2.677544651490    -5.334873558758
C                     5.375759345836    -5.724452519478    -4.447680410813
C                     0.281710594370    -3.728870302988    -1.301891976227
N                    -0.228214884787    -3.154488859361    -4.150702699366
N                    -0.613189040671    -3.446449394048    -6.470201282230
O                    -1.223267212565    -5.815896495233    -5.643692853861
O                    -0.314753022667    -5.372180287522    -7.993416483217
S                    -0.468511017588    -0.902588892127    -5.482624244024
S                    -0.304330480620    -5.143224300635    -6.547848877838
H                     0.281127335249     0.964223490088    -0.917617694247
H                     0.465235447696    -1.315771765286     0.017311651439
H                     4.569798000706    -5.093647486970    -6.983426911560
H                     3.033139608318    -6.015108547672    -3.070774548663
H                    -0.132138274767     1.314843726044    -3.346815369062
H                     2.246810012732    -4.897630971661    -7.849502031098
H                     0.705087711944    -5.788444062152    -3.934372605553
H                     5.707861602107    -6.764468891969    -4.550768423079
H                     6.078953338922    -5.098142847375    -5.003731568620
H                     5.445412407317    -5.460884427102    -3.388589512382
H                    -0.587290467676    -4.334825178974    -1.576287367715
H                     1.163249166314    -4.229715852642    -1.717594844181
H                     0.373361557791    -3.719207807585    -0.212623657252
H                    -0.522673585708    -3.004854837695    -7.380096365351
