29
0 1 BrC14H12NO
C                     7.520211748439    -6.049927275695    -1.280445122392
C                     6.577145297702    -6.535007524970    -0.367795343800
C                     7.436424596498    -4.720594196071    -1.704170861912
C                     2.169784073344    -0.722113321934     0.136593147823
C                     5.569568948754    -5.698688172283     0.110433028992
C                     6.431705338812    -3.869394957022    -1.235552479561
C                     1.090575275558    -0.178134283834     0.828497478501
C                     2.617180851433    -2.179893659988     2.010518603102
C                     2.934026050286    -1.742242124743     0.716900032100
C                     1.545878289264    -1.644445641162     2.740414259101
C                     5.488431498235    -4.361519073566    -0.317865013299
C                     0.789375396733    -0.643851049953     2.110525158260
C                     4.086343452615    -2.283015370259    -0.083133575751
C                     1.248635311865    -2.128547642863     4.136876653545
N                     4.446030938988    -3.577057314780     0.224100595475
O                     4.637017122191    -1.604405066510    -0.948590341135
Br                   -0.705590165706     0.141879924497     3.024676022096
H                     8.306472376359    -6.699296294553    -1.655120140355
H                     6.623974363993    -7.565656751735    -0.026151678454
H                     8.162308089096    -4.332463095951    -2.414118817823
H                     2.433722177009    -0.365365785390    -0.853693060739
H                     4.839844867882    -6.083546300771     0.821172247711
H                     6.366978488528    -2.844462585126    -1.572855902217
H                     0.486865793728     0.604095855278     0.380037017177
H                     3.235839790551    -2.926371523101     2.503532054865
H                     1.303437856321    -1.307950388526     4.859269132333
H                     0.238449801762    -2.545054050536     4.203588272917
H                     1.960264601360    -2.900676207073     4.439473814211
H                     3.830980316392    -4.070796723592     0.856904176846
