28
0 1 C13H13NO
C                    -0.792197181291     0.338613686597    -4.951470403010
C                    -0.192021396705    -0.617212872430    -5.805187504270
C                    -0.813296810207     0.132238321010    -3.587839416866
C                     0.372477514343    -1.756428185696    -5.270072946463
C                     0.292623921821    -2.413696391531    -1.083395674336
C                     0.900962090254    -3.371004879586    -1.924967841104
C                    -0.237537463208    -1.028865375679    -2.997111445780
C                     0.370670913930    -1.997522158977    -3.868386636306
C                    -0.262926269212    -1.253595459197    -1.585035645985
C                     0.946755022274    -3.172010737031    -3.288524160343
C                    -2.458534634946    -0.206808243129    -0.540568766150
C                    -2.235664503488    -0.083902644867     0.984902211451
C                    -0.903292539064    -0.250884894701    -0.657890735198
N                    -0.841000449002    -0.572936112495     0.794972403547
O                     1.555087311548    -4.144482956811    -4.046516893101
H                    -1.239965171901     1.234131136032    -5.374360619341
H                    -0.180198667634    -0.455945032665    -6.879650646122
H                    -1.286485140491     0.871387614224    -2.950099326509
H                     0.815380614811    -2.473434423662    -5.959351166440
H                     0.251847949599    -2.582744676199    -0.012151914339
H                     1.342210993345    -4.273933492899    -1.513068778317
H                    -2.910907647354    -1.157208804249    -0.831088859302
H                    -2.974164348095     0.614948163305    -1.041798651920
H                    -2.301155898422     0.957598715296     1.330053591438
H                    -2.844837030920    -0.715684543797     1.639547492232
H                    -0.517516510369     0.757462391357    -0.872978024580
H                    -0.128547278215    -0.057705192584     1.308440067950
H                     1.573695971039    -3.875131539617    -4.976438089790
