
  -OEChem-05262117483D

 25 26  0     0  0  0  0  0  0999 V2000
    5.2311   -1.4161   -2.0640 C   0  0  0  0  0  0  0  0  0  0  0  0
    4.1977   -1.4241   -3.0045 C   0  0  0  0  0  0  0  0  0  0  0  0
    5.0333   -0.7389   -0.8614 C   0  0  0  0  0  0  0  0  0  0  0  0
    0.2724   -0.5539    0.5437 C   0  0  0  0  0  0  0  0  0  0  0  0
    1.4779   -0.6205    2.6178 C   0  0  0  0  0  0  0  0  0  0  0  0
    3.0083   -0.7516   -2.7000 C   0  0  0  0  0  0  0  0  0  0  0  0
   -0.4850   -1.6273    1.0083 C   0  0  0  0  0  0  0  0  0  0  0  0
    1.2759   -0.0264    1.3676 C   0  0  0  0  0  0  0  0  0  0  0  0
    3.8045   -0.1006   -0.6489 C   0  0  0  0  0  0  0  0  0  0  0  0
    0.6588   -1.6987    2.9655 C   0  0  0  0  0  0  0  0  0  0  0  0
    3.5647    0.6232    0.6483 C   0  0  0  0  0  0  0  0  0  0  0  0
    2.1516    1.1290    0.9239 C   0  0  0  0  0  0  0  0  0  0  0  0
    2.8057   -0.1025   -1.5490 N   0  0  0  0  0  0  0  0  0  0  0  0
   -0.2984   -2.2022    2.2092 N   0  0  0  0  0  0  0  0  0  0  0  0
    4.4635    0.7599    1.4659 O   0  0  0  0  0  0  0  0  0  0  0  0
    0.9365   -2.5358    4.6824 Br  0  0  0  0  0  0  0  0  0  0  0  0
    6.1685   -1.9280   -2.2645 H   0  0  0  0  0  0  0  0  0  0  0  0
    4.3037   -1.9388   -3.9552 H   0  0  0  0  0  0  0  0  0  0  0  0
    5.7930   -0.6936   -0.0881 H   0  0  0  0  0  0  0  0  0  0  0  0
    0.0970   -0.1420   -0.4445 H   0  0  0  0  0  0  0  0  0  0  0  0
    2.2480   -0.2633    3.2933 H   0  0  0  0  0  0  0  0  0  0  0  0
    2.1858   -0.7375   -3.4132 H   0  0  0  0  0  0  0  0  0  0  0  0
   -1.2771   -2.0545    0.3964 H   0  0  0  0  0  0  0  0  0  0  0  0
    1.7351    1.5853    0.0250 H   0  0  0  0  0  0  0  0  0  0  0  0
    2.2296    1.8739    1.7188 H   0  0  0  0  0  0  0  0  0  0  0  0
  1  2  1  0  0  0  0
  1  3  2  0  0  0  0
  1 17  1  0  0  0  0
  2  6  2  0  0  0  0
  2 18  1  0  0  0  0
  3  9  1  0  0  0  0
  3 19  1  0  0  0  0
  4  7  2  0  0  0  0
  4  8  1  0  0  0  0
  4 20  1  0  0  0  0
  5  8  2  0  0  0  0
  5 10  1  0  0  0  0
  5 21  1  0  0  0  0
  6 13  1  0  0  0  0
  6 22  1  0  0  0  0
  7 14  1  0  0  0  0
  7 23  1  0  0  0  0
  8 12  1  0  0  0  0
  9 11  1  0  0  0  0
  9 13  2  0  0  0  0
 10 14  2  0  0  0  0
 10 16  1  0  0  0  0
 11 12  1  0  0  0  0
 11 15  2  0  0  0  0
 12 24  1  0  0  0  0
 12 25  1  0  0  0  0
M  END
$$$$
