
  -OEChem-05262117483D

 25 26  0     0  0  0  0  0  0999 V2000
    3.5557   -0.0561   -2.3423 C   0  0  0  0  0  0  0  0  0  0  0  0
    4.8603   -0.5186   -2.5068 C   0  0  0  0  0  0  0  0  0  0  0  0
    3.1826    0.4642   -1.1010 C   0  0  0  0  0  0  0  0  0  0  0  0
    0.3044   -0.2691    1.1782 C   0  0  0  0  0  0  0  0  0  0  0  0
    2.2594   -1.3265    2.0767 C   0  0  0  0  0  0  0  0  0  0  0  0
    5.7385   -0.4323   -1.4171 C   0  0  0  0  0  0  0  0  0  0  0  0
   -0.3056   -1.5224    1.1573 C   0  0  0  0  0  0  0  0  0  0  0  0
    1.6206   -0.1586    1.6478 C   0  0  0  0  0  0  0  0  0  0  0  0
    4.1379    0.5192   -0.0763 C   0  0  0  0  0  0  0  0  0  0  0  0
    1.5466   -2.5265    1.9994 C   0  0  0  0  0  0  0  0  0  0  0  0
    3.8095    1.0934    1.2842 C   0  0  0  0  0  0  0  0  0  0  0  0
    2.3361    1.1739    1.6989 C   0  0  0  0  0  0  0  0  0  0  0  0
    5.3975    0.0773   -0.2327 N   0  0  0  0  0  0  0  0  0  0  0  0
    0.3070   -2.6484    1.5590 N   0  0  0  0  0  0  0  0  0  0  0  0
    4.6853    1.4706    2.0406 O   0  0  0  0  0  0  0  0  0  0  0  0
    2.4283   -4.1441    2.5651 Br  0  0  0  0  0  0  0  0  0  0  0  0
    2.8396   -0.1046   -3.1582 H   0  0  0  0  0  0  0  0  0  0  0  0
    5.1969   -0.9411   -3.4493 H   0  0  0  0  0  0  0  0  0  0  0  0
    2.1700    0.8183   -0.9431 H   0  0  0  0  0  0  0  0  0  0  0  0
   -0.2411    0.6057    0.8339 H   0  0  0  0  0  0  0  0  0  0  0  0
    3.2781   -1.3128    2.4501 H   0  0  0  0  0  0  0  0  0  0  0  0
    6.7623   -0.7928   -1.5067 H   0  0  0  0  0  0  0  0  0  0  0  0
   -1.3274   -1.6377    0.8007 H   0  0  0  0  0  0  0  0  0  0  0  0
    1.8146    1.9013    1.0668 H   0  0  0  0  0  0  0  0  0  0  0  0
    2.3289    1.5690    2.7185 H   0  0  0  0  0  0  0  0  0  0  0  0
  1  2  1  0  0  0  0
  1  3  2  0  0  0  0
  1 17  1  0  0  0  0
  2  6  2  0  0  0  0
  2 18  1  0  0  0  0
  3  9  1  0  0  0  0
  3 19  1  0  0  0  0
  4  7  2  0  0  0  0
  4  8  1  0  0  0  0
  4 20  1  0  0  0  0
  5  8  2  0  0  0  0
  5 10  1  0  0  0  0
  5 21  1  0  0  0  0
  6 13  1  0  0  0  0
  6 22  1  0  0  0  0
  7 14  1  0  0  0  0
  7 23  1  0  0  0  0
  8 12  1  0  0  0  0
  9 11  1  0  0  0  0
  9 13  2  0  0  0  0
 10 14  2  0  0  0  0
 10 16  1  0  0  0  0
 11 12  1  0  0  0  0
 11 15  2  0  0  0  0
 12 24  1  0  0  0  0
 12 25  1  0  0  0  0
M  END
$$$$
