35
0 1 C19H13NOS
C                     6.667462263585    -5.434684117262    -4.107636522260
C                     5.322867162861    -4.984431999488    -4.159231982939
C                     6.935344399086     3.952010515910    -4.202231150335
C                     6.006570537966     4.820985859945    -3.589873193057
C                     7.626402485444    -2.189531310521    -0.609626238681
C                     7.557502728889    -4.864031748396    -3.222800784703
C                     4.895579854334    -3.967731063772    -3.330781886965
C                     6.821833770688     2.575645838002    -4.050893326220
C                     8.051513700862    -3.212675492079    -1.431672030964
C                     6.295540057223    -1.716366914922    -0.673232450386
C                     4.956428031459     4.325890894914    -2.820417317726
C                     7.150454522465    -3.815465375044    -2.351392940034
C                     5.793084813995    -3.359452438359    -2.411609808747
C                     5.765630343582     2.059257337651    -3.276485066586
C                     5.382129999148    -2.278926984172    -1.558546505932
C                     5.473270841030     0.677329589064    -2.991183951923
C                     4.838038500306     2.937635800878    -2.672429714532
C                     4.361501716553     0.504389422975    -2.184005917260
C                     3.639125213625    -0.685545694981    -1.748398127903
N                     4.032283015696    -1.896593068020    -1.559739864043
O                     6.252236745225    -0.263867246837    -3.569269895322
S                     3.620397087087     2.069076654720    -1.768287401536
H                     6.992696656929    -6.234133360010    -4.768351306895
H                     4.627530276580    -5.447517458386    -4.854358568905
H                     7.745420848460     4.367254576639    -4.795261190457
H                     6.110343580715     5.894813851558    -3.720736034327
H                     8.316105772307    -1.730330515068     0.093520435379
H                     8.588250800665    -5.208218750543    -3.180388406042
H                     3.867389444187    -3.621622465711    -3.358625678344
H                     7.529572147156     1.893653991333    -4.512337420288
H                     9.078163157555    -3.567154779303    -1.387503217888
H                     5.972252623256    -0.910920131129    -0.020677567756
H                     4.245003057285     5.000435265566    -2.352149732239
H                     2.573019002329    -0.515355826900    -1.569217433178
H                     6.132687162375    -1.127838336618    -3.129083140853
