
  -OEChem-05262117483D

 28 30  0     1  0  0  0  0  0999 V2000
   -0.7922    0.3386   -4.9515 C   0  0  0  0  0  0  0  0  0  0  0  0
   -0.1920   -0.6172   -5.8052 C   0  0  0  0  0  0  0  0  0  0  0  0
   -0.8133    0.1322   -3.5878 C   0  0  0  0  0  0  0  0  0  0  0  0
    0.3725   -1.7564   -5.2701 C   0  0  0  0  0  0  0  0  0  0  0  0
    0.2926   -2.4137   -1.0834 C   0  0  0  0  0  0  0  0  0  0  0  0
    0.9010   -3.3710   -1.9250 C   0  0  0  0  0  0  0  0  0  0  0  0
   -0.2375   -1.0289   -2.9971 C   0  0  0  0  0  0  0  0  0  0  0  0
    0.3707   -1.9975   -3.8684 C   0  0  0  0  0  0  0  0  0  0  0  0
   -0.2629   -1.2536   -1.5850 C   0  0  0  0  0  0  0  0  0  0  0  0
    0.9468   -3.1720   -3.2885 C   0  0  0  0  0  0  0  0  0  0  0  0
   -2.4585   -0.2068   -0.5406 C   0  0  0  0  0  0  0  0  0  0  0  0
   -2.2357   -0.0839    0.9849 C   0  0  0  0  0  0  0  0  0  0  0  0
   -0.9033   -0.2509   -0.6579 C   0  0  1  0  0  0  0  0  0  0  0  0
   -0.8410   -0.5729    0.7950 N   0  0  0  0  0  0  0  0  0  0  0  0
    1.5551   -4.1445   -4.0465 O   0  0  0  0  0  0  0  0  0  0  0  0
   -1.2400    1.2341   -5.3744 H   0  0  0  0  0  0  0  0  0  0  0  0
   -0.1802   -0.4559   -6.8797 H   0  0  0  0  0  0  0  0  0  0  0  0
   -1.2865    0.8714   -2.9501 H   0  0  0  0  0  0  0  0  0  0  0  0
    0.8154   -2.4734   -5.9594 H   0  0  0  0  0  0  0  0  0  0  0  0
    0.2518   -2.5827   -0.0122 H   0  0  0  0  0  0  0  0  0  0  0  0
    1.3422   -4.2739   -1.5131 H   0  0  0  0  0  0  0  0  0  0  0  0
   -2.9109   -1.1572   -0.8311 H   0  0  0  0  0  0  0  0  0  0  0  0
   -2.9742    0.6149   -1.0418 H   0  0  0  0  0  0  0  0  0  0  0  0
   -2.3012    0.9576    1.3301 H   0  0  0  0  0  0  0  0  0  0  0  0
   -2.8448   -0.7157    1.6395 H   0  0  0  0  0  0  0  0  0  0  0  0
   -0.5175    0.7575   -0.8730 H   0  0  0  0  0  0  0  0  0  0  0  0
   -0.1285   -0.0577    1.3084 H   0  0  0  0  0  0  0  0  0  0  0  0
    1.5737   -3.8751   -4.9764 H   0  0  0  0  0  0  0  0  0  0  0  0
  1  2  1  0  0  0  0
  1  3  2  0  0  0  0
  1 16  1  0  0  0  0
  2  4  2  0  0  0  0
  2 17  1  0  0  0  0
  3  7  1  0  0  0  0
  3 18  1  0  0  0  0
  4  8  1  0  0  0  0
  4 19  1  0  0  0  0
  5  6  2  0  0  0  0
  5  9  1  0  0  0  0
  5 20  1  0  0  0  0
  6 10  1  0  0  0  0
  6 21  1  0  0  0  0
  7  8  1  0  0  0  0
  7  9  2  0  0  0  0
  8 10  2  0  0  0  0
  9 13  1  0  0  0  0
 10 15  1  0  0  0  0
 11 12  1  0  0  0  0
 11 13  1  0  0  0  0
 11 22  1  0  0  0  0
 11 23  1  0  0  0  0
 12 14  1  0  0  0  0
 12 24  1  0  0  0  0
 12 25  1  0  0  0  0
 13 14  1  0  0  0  0
 13 26  1  0  0  0  0
 14 27  1  0  0  0  0
 15 28  1  0  0  0  0
M  END
$$$$
