
  -OEChem-05262117483D

 25 26  0     0  0  0  0  0  0999 V2000
    5.3382   -0.4504    4.1757 C   0  0  0  0  0  0  0  0  0  0  0  0
    5.9656   -1.6635    3.8978 C   0  0  0  0  0  0  0  0  0  0  0  0
    4.6070    0.1702    3.1603 C   0  0  0  0  0  0  0  0  0  0  0  0
    0.9498   -0.5424    1.5336 C   0  0  0  0  0  0  0  0  0  0  0  0
    1.2008    1.2335    3.1245 C   0  0  0  0  0  0  0  0  0  0  0  0
    5.8364   -2.1983    2.6077 C   0  0  0  0  0  0  0  0  0  0  0  0
   -0.0491   -1.0656    2.3507 C   0  0  0  0  0  0  0  0  0  0  0  0
    1.5989    0.6393    1.9251 C   0  0  0  0  0  0  0  0  0  0  0  0
    4.5444   -0.4394    1.8994 C   0  0  0  0  0  0  0  0  0  0  0  0
    0.1896    0.6084    3.8620 C   0  0  0  0  0  0  0  0  0  0  0  0
    3.7874    0.1884    0.7505 C   0  0  0  0  0  0  0  0  0  0  0  0
    2.7059    1.2271    1.0773 C   0  0  0  0  0  0  0  0  0  0  0  0
    5.1517   -1.6076    1.6277 N   0  0  0  0  0  0  0  0  0  0  0  0
   -0.4294   -0.5012    3.5113 N   0  0  0  0  0  0  0  0  0  0  0  0
    4.0011   -0.1367   -0.4030 O   0  0  0  0  0  0  0  0  0  0  0  0
   -0.3404    1.4130    5.5343 Br  0  0  0  0  0  0  0  0  0  0  0  0
    5.4087    0.0027    5.1608 H   0  0  0  0  0  0  0  0  0  0  0  0
    6.5395   -2.1907    4.6545 H   0  0  0  0  0  0  0  0  0  0  0  0
    4.1048    1.1109    3.3542 H   0  0  0  0  0  0  0  0  0  0  0  0
    1.2227   -1.0494    0.6124 H   0  0  0  0  0  0  0  0  0  0  0  0
    1.6573    2.1503    3.4828 H   0  0  0  0  0  0  0  0  0  0  0  0
    6.3076   -3.1479    2.3576 H   0  0  0  0  0  0  0  0  0  0  0  0
   -0.5702   -1.9798    2.0746 H   0  0  0  0  0  0  0  0  0  0  0  0
    2.3112    1.5672    0.1166 H   0  0  0  0  0  0  0  0  0  0  0  0
    3.1485    2.0934    1.5791 H   0  0  0  0  0  0  0  0  0  0  0  0
  1  2  1  0  0  0  0
  1  3  2  0  0  0  0
  1 17  1  0  0  0  0
  2  6  2  0  0  0  0
  2 18  1  0  0  0  0
  3  9  1  0  0  0  0
  3 19  1  0  0  0  0
  4  7  2  0  0  0  0
  4  8  1  0  0  0  0
  4 20  1  0  0  0  0
  5  8  2  0  0  0  0
  5 10  1  0  0  0  0
  5 21  1  0  0  0  0
  6 13  1  0  0  0  0
  6 22  1  0  0  0  0
  7 14  1  0  0  0  0
  7 23  1  0  0  0  0
  8 12  1  0  0  0  0
  9 11  1  0  0  0  0
  9 13  2  0  0  0  0
 10 14  2  0  0  0  0
 10 16  1  0  0  0  0
 11 12  1  0  0  0  0
 11 15  2  0  0  0  0
 12 24  1  0  0  0  0
 12 25  1  0  0  0  0
M  END
$$$$
