36
0 1 C19H12N4O
C                     2.654303479445    -2.133320143956    -1.834569281387
C                    -0.454408963517    -1.271581060149     4.177318508568
C                    -8.160514760447     1.234786051039     5.319659343528
C                    -8.553681579697     2.080220899231     4.278263072667
C                     1.905809287114    -1.979208462863     0.507358504010
C                     0.436493605548    -1.221972972110    -1.280640663955
C                    -6.858517372119     0.741600532014     5.343441398183
C                     0.946191363877    -1.635142869844     1.450706667526
C                    -0.518202281700    -0.879416232655    -0.331873328919
C                    -7.639607340721     2.424710066857     3.280369031517
C                     1.659052657295    -1.776093183443    -0.863187314831
C                    -5.937584583735     1.081673906321     4.335202773373
C                    -0.288822280989    -1.077099423339     1.048901040895
C                    -6.322654107936     1.941852753457     3.280620157854
C                    -4.580299273739     0.518627465005     4.440404155373
C                    -2.691729400083    -0.266239193723     3.945542620994
C                    -1.361066619840    -0.681993868126     1.949085420570
C                    -1.467075494513    -0.750689907331     3.307007664132
C                    -5.384237103424     2.374834463863     2.177057349516
N                     3.460787307693    -2.422170841762    -2.624634815163
N                     0.369538252444    -1.694064619668     4.884370759156
N                    -3.742143226330     0.256655323470     3.370666603054
N                    -4.063952985854     0.181206496215     5.611076434386
O                    -2.804388169590    -0.350274593277     5.282748550445
H                    -8.861523844331     0.958998505437     6.102470344588
H                    -9.566797006429     2.472427558183     4.242801410208
H                     2.851845019973    -2.406931776369     0.823945988270
H                     0.247120735491    -1.065581569135    -2.337766515732
H                    -6.539383751710     0.078845049551     6.141602041507
H                     1.163862038192    -1.802553097039     2.497223765087
H                    -1.462306597116    -0.451077734766    -0.657812491055
H                    -7.951154671347     3.091402342011     2.479939519736
H                    -2.236656848344    -0.257935694191     1.462756381870
H                    -4.429359126298     2.732705089077     2.571853150849
H                    -5.152986678237     1.544865317080     1.503890178431
H                    -5.837182188148     3.179619045879     1.592225058153
