
  -OEChem-05262117483D

 18 19  0     0  0  0  0  0  0999 V2000
    1.5194   -0.5842    1.2820 C   0  0  0  0  0  0  0  0  0  0  0  0
    0.1722   -0.3209    1.0194 C   0  0  0  0  0  0  0  0  0  0  0  0
    1.8837   -1.0201    2.5554 C   0  0  0  0  0  0  0  0  0  0  0  0
   -0.7447   -0.5107    2.0573 C   0  0  0  0  0  0  0  0  0  0  0  0
    0.8905   -1.1822    3.5363 C   0  0  0  0  0  0  0  0  0  0  0  0
    0.4706   -1.1110    6.1011 C   0  0  0  0  0  0  0  0  0  0  0  0
    0.2759   -2.5362    5.6693 C   0  0  0  0  0  0  0  0  0  0  0  0
    1.2445   -1.6451    4.9035 C   0  0  0  0  0  0  0  0  0  0  0  0
   -0.4070   -0.9284    3.2827 N   0  0  0  0  0  0  0  0  0  0  0  0
    2.2721   -0.4521    0.5085 H   0  0  0  0  0  0  0  0  0  0  0  0
   -0.1624    0.0206    0.0441 H   0  0  0  0  0  0  0  0  0  0  0  0
    2.9220   -1.2342    2.7947 H   0  0  0  0  0  0  0  0  0  0  0  0
   -1.8047   -0.3170    1.8953 H   0  0  0  0  0  0  0  0  0  0  0  0
   -0.3268   -0.4107    5.8747 H   0  0  0  0  0  0  0  0  0  0  0  0
    1.0332   -0.9105    7.0083 H   0  0  0  0  0  0  0  0  0  0  0  0
    0.7027   -3.3302    6.2752 H   0  0  0  0  0  0  0  0  0  0  0  0
   -0.6502   -2.7778    5.1579 H   0  0  0  0  0  0  0  0  0  0  0  0
    2.3024   -1.8368    5.0582 H   0  0  0  0  0  0  0  0  0  0  0  0
  1  2  1  0  0  0  0
  1  3  2  0  0  0  0
  1 10  1  0  0  0  0
  2  4  2  0  0  0  0
  2 11  1  0  0  0  0
  3  5  1  0  0  0  0
  3 12  1  0  0  0  0
  4  9  1  0  0  0  0
  4 13  1  0  0  0  0
  5  8  1  0  0  0  0
  5  9  2  0  0  0  0
  6  7  1  0  0  0  0
  6  8  1  0  0  0  0
  6 14  1  0  0  0  0
  6 15  1  0  0  0  0
  7  8  1  0  0  0  0
  7 16  1  0  0  0  0
  7 17  1  0  0  0  0
  8 18  1  0  0  0  0
M  END
$$$$
