22
0 1 C11H9NO
C                     1.936964574225    -0.943616588657    -0.143320879333
C                     2.953403577806    -1.579358087817     0.578146634733
C                     0.833700184792    -0.409545076175     0.531534732186
C                     0.478431915514    -3.308674159588     6.674410958331
C                    -0.077070612528    -4.343351282193     5.904829922006
C                     2.870120610036    -1.684284826844     1.969735576947
C                     0.742411665426    -0.510028345915     1.922937906740
C                     1.085908715742    -2.236474599713     6.033425122510
C                     0.008925684930    -4.243390500863     4.518858963190
C                     1.763559303702    -1.147511510153     2.624881877419
C                     1.110073667152    -2.249028445310     4.627189851588
N                     0.592945937988    -3.213484519366     3.880424624083
O                     1.715505213336    -1.179056880245     4.023384070090
H                     2.005289316240    -0.862904141522    -1.224866126799
H                     3.813186886144    -1.993998875941     0.058397832635
H                     0.042692488035     0.086845769759    -0.024520066361
H                     0.436310706029    -3.341372934912     7.760101774773
H                    -0.560424405279    -5.198363475882     6.367143628860
H                     3.647557790063    -2.175478914440     2.547464558566
H                    -0.106490187805    -0.103687003826     2.464879808375
H                     1.532186093526    -1.408326473422     6.574238400281
H                    -0.406519775353    -5.019818121899     3.878495196347
