
  -OEChem-05262117483D

 33 35  0     0  0  0  0  0  0999 V2000
    2.0025   -4.7993    6.5507 C   0  0  0  0  0  0  0  0  0  0  0  0
    0.1876   -1.9224    2.4405 C   0  0  0  0  0  0  0  0  0  0  0  0
    1.2857   -5.8154    7.1877 C   0  0  0  0  0  0  0  0  0  0  0  0
    1.0388   -1.4834    1.4170 C   0  0  0  0  0  0  0  0  0  0  0  0
    1.9726   -4.7149    5.1594 C   0  0  0  0  0  0  0  0  0  0  0  0
    0.2854   -3.2339    2.8939 C   0  0  0  0  0  0  0  0  0  0  0  0
    0.5569   -6.7316    6.4254 C   0  0  0  0  0  0  0  0  0  0  0  0
    1.9479   -2.3648    0.8406 C   0  0  0  0  0  0  0  0  0  0  0  0
    1.2559   -5.6443    4.3855 C   0  0  0  0  0  0  0  0  0  0  0  0
    1.2019   -4.1436    2.3324 C   0  0  0  0  0  0  0  0  0  0  0  0
    0.5300   -6.6770    5.0238 C   0  0  0  0  0  0  0  0  0  0  0  0
    2.0290   -3.6993    1.2764 C   0  0  0  0  0  0  0  0  0  0  0  0
    1.3156   -5.5166    2.8977 C   0  0  0  0  0  0  0  0  0  0  0  0
    2.8004   -5.8503    0.2617 C   0  0  0  0  0  0  0  0  0  0  0  0
    1.5050   -6.4870    0.7503 C   0  0  0  0  0  0  0  0  0  0  0  0
   -0.2792   -7.7049    4.2669 C   0  0  0  0  0  0  0  0  0  0  0  0
    1.4774   -6.5869    2.2021 N   0  0  0  0  0  0  0  0  0  0  0  0
    2.9887   -4.5385    0.6790 N   0  0  0  0  0  0  0  0  0  0  0  0
    3.6261   -6.4152   -0.4394 O   0  0  0  0  0  0  0  0  0  0  0  0
    2.5749   -4.0791    7.1292 H   0  0  0  0  0  0  0  0  0  0  0  0
   -0.5336   -1.2430    2.8853 H   0  0  0  0  0  0  0  0  0  0  0  0
    1.2878   -5.8925    8.2721 H   0  0  0  0  0  0  0  0  0  0  0  0
    0.9870   -0.4574    1.0628 H   0  0  0  0  0  0  0  0  0  0  0  0
    2.5229   -3.9233    4.6587 H   0  0  0  0  0  0  0  0  0  0  0  0
   -0.3456   -3.5724    3.7101 H   0  0  0  0  0  0  0  0  0  0  0  0
   -0.0090   -7.5119    6.9292 H   0  0  0  0  0  0  0  0  0  0  0  0
    2.5984   -2.0305    0.0355 H   0  0  0  0  0  0  0  0  0  0  0  0
    0.6640   -5.8898    0.3644 H   0  0  0  0  0  0  0  0  0  0  0  0
    1.4571   -7.4867    0.3190 H   0  0  0  0  0  0  0  0  0  0  0  0
   -0.8510   -7.2532    3.4515 H   0  0  0  0  0  0  0  0  0  0  0  0
    0.3715   -8.4549    3.8098 H   0  0  0  0  0  0  0  0  0  0  0  0
   -0.9769   -8.2094    4.9417 H   0  0  0  0  0  0  0  0  0  0  0  0
    3.7737   -4.0872    0.2197 H   0  0  0  0  0  0  0  0  0  0  0  0
  1  3  1  0  0  0  0
  1  5  2  0  0  0  0
  1 20  1  0  0  0  0
  2  4  2  0  0  0  0
  2  6  1  0  0  0  0
  2 21  1  0  0  0  0
  3  7  2  0  0  0  0
  3 22  1  0  0  0  0
  4  8  1  0  0  0  0
  4 23  1  0  0  0  0
  5  9  1  0  0  0  0
  5 24  1  0  0  0  0
  6 10  2  0  0  0  0
  6 25  1  0  0  0  0
  7 11  1  0  0  0  0
  7 26  1  0  0  0  0
  8 12  2  0  0  0  0
  8 27  1  0  0  0  0
  9 11  2  0  0  0  0
  9 13  1  0  0  0  0
 10 12  1  0  0  0  0
 10 13  1  0  0  0  0
 11 16  1  0  0  0  0
 12 18  1  0  0  0  0
 13 17  2  0  0  0  0
 14 15  1  0  0  0  0
 14 18  1  0  0  0  0
 14 19  2  0  0  0  0
 15 17  1  0  0  0  0
 15 28  1  0  0  0  0
 15 29  1  0  0  0  0
 16 30  1  0  0  0  0
 16 31  1  0  0  0  0
 16 32  1  0  0  0  0
 18 33  1  0  0  0  0
M  END
$$$$
