22
0 1 C9H9N3O
C                     0.181576978472    -0.470890896841     0.922100751281
C                     1.375387615690    -0.076011432591     1.534872472220
C                     1.971720991632    -3.013035832703     6.422407615844
C                    -0.647775967908    -1.364936593325     1.593868349188
C                     0.568402127446    -2.852488827551     6.584758512023
C                     2.239465493432    -2.478675495300     5.179995957154
C                     1.693417298353    -0.587124189613     2.794802785891
C                     0.781923824883    -1.499242716620     3.385844532604
C                     3.674787714711     0.744304712229     2.967521919951
N                    -0.345213426015    -1.872738108620     2.795712949526
N                     0.005796353161    -2.276232620194     5.528326998955
N                     1.041443208879    -2.043969667332     4.670023677564
O                     2.814627182397    -0.261076562023     3.502298312353
H                    -0.092302142438    -0.087243070717    -0.056276070150
H                     2.033585903391     0.628019544214     1.038689598221
H                     2.681495128704    -3.452014623770     7.110400945928
H                    -1.587345949019    -1.696486012873     1.156859854213
H                    -0.049946570949    -3.125765453747     7.431385617637
H                     3.159317633159    -2.371803971813     4.626718561073
H                     4.462939272725     0.882009851875     3.708227772055
H                     3.137475706202     1.689324848185     2.825537752835
H                     4.119212427205     0.424448749051     2.017441368165
