22
0 1 C8H10N2O2
C                    -1.354708227564    -1.233742582373    -0.738082408456
C                    -1.726745201879    -2.445499148127    -1.395198618721
C                    -0.352763689415    -1.204968407498     0.193700867585
C                    -1.045129224491    -3.589401135234    -1.084157985858
C                     0.374524482921    -2.408345028779     0.564847236655
C                    -1.388889424050    -4.912915530419    -1.715090671784
C                    -0.672637671076    -7.071300126500    -2.540074974535
C                     0.955722411660    -5.219776372415    -2.527045054660
N                    -0.047007187340    -3.552257975146    -0.143204248676
N                    -0.336406811249    -5.730739843254    -2.061747365141
O                     1.276139900651    -2.498585396260     1.400874118390
O                    -2.566402017025    -5.246708259165    -1.834866827149
H                    -1.882744643295    -0.316155871452    -0.986971733562
H                    -2.529302921524    -2.487200820628    -2.121273938057
H                    -0.062856706271    -0.292054352514     0.702897458053
H                    -0.920654705760    -7.064776646809    -3.609429974064
H                    -1.532918548871    -7.449651068664    -1.989331797532
H                     0.187373162296    -7.727393056209    -2.378853358399
H                     1.776635706503    -5.775852195172    -2.061865630955
H                     1.071961393088    -4.163626053534    -2.291063256032
H                     1.032448926707    -5.336000505130    -3.615748683341
H                     0.423091451840    -4.412492618728     0.123866509991
