18
0 1 C8H9N
C                     1.519374326957    -0.584167448991     1.281969184510
C                     0.172182024483    -0.320865088243     1.019381594004
C                     1.883692801854    -1.020057903646     2.555362591936
C                    -0.744709225872    -0.510670962845     2.057295825901
C                     0.890482238315    -1.182208633253     3.536281649480
C                     0.470562013204    -1.111006839412     6.101134510805
C                     0.275917051141    -2.536151141393     5.669262760181
C                     1.244453309037    -1.645140228586     4.903472193758
N                    -0.407046068548    -0.928402209381     3.282662310919
H                     2.272104836863    -0.452109175235     0.508524016816
H                    -0.162361797229     0.020612965802     0.044129553419
H                     2.921963746817    -1.234202606706     2.794747698543
H                    -1.804703953687    -0.317037597104     1.895304971313
H                    -0.326833318162    -0.410675128816     5.874735894499
H                     1.033229156170    -0.910488301358     7.008276099687
H                     0.702740742222    -3.330154711427     6.275159659513
H                    -0.650200716097    -2.777773926753     5.157903057322
H                     2.302367174474    -1.836828418276     5.058236593773
