
  -OEChem-05262117483D

 30 32  0     0  0  0  0  0  0999 V2000
    5.6745    5.0647   -3.0282 C   0  0  0  0  0  0  0  0  0  0  0  0
    5.7141    5.7913   -1.8314 C   0  0  0  0  0  0  0  0  0  0  0  0
    4.5891    4.2237   -3.2917 C   0  0  0  0  0  0  0  0  0  0  0  0
    1.6834    1.0299   -0.1312 C   0  0  0  0  0  0  0  0  0  0  0  0
    0.2828    1.0394   -0.0812 C   0  0  0  0  0  0  0  0  0  0  0  0
    4.6765    5.6771   -0.9067 C   0  0  0  0  0  0  0  0  0  0  0  0
    3.5544    4.1003   -2.3606 C   0  0  0  0  0  0  0  0  0  0  0  0
    2.3746    2.2373   -0.1432 C   0  0  0  0  0  0  0  0  0  0  0  0
   -0.4029    2.2476   -0.0035 C   0  0  0  0  0  0  0  0  0  0  0  0
    3.5875    4.8252   -1.1576 C   0  0  0  0  0  0  0  0  0  0  0  0
    1.7033    3.4736   -0.0840 C   0  0  0  0  0  0  0  0  0  0  0  0
    0.2940    3.4687    0.0158 C   0  0  0  0  0  0  0  0  0  0  0  0
    2.4738    4.7445   -0.1677 C   0  0  0  0  0  0  0  0  0  0  0  0
   -0.1855    5.7526    0.9053 C   0  0  0  0  0  0  0  0  0  0  0  0
    1.1937    5.7339    1.5552 C   0  0  0  0  0  0  0  0  0  0  0  0
    2.2470    5.7872    0.5535 N   0  0  0  0  0  0  0  0  0  0  0  0
   -0.4494    4.6627    0.0834 N   0  0  0  0  0  0  0  0  0  0  0  0
   -1.0143    6.6346    1.0694 O   0  0  0  0  0  0  0  0  0  0  0  0
    6.4828    5.1553   -3.7493 H   0  0  0  0  0  0  0  0  0  0  0  0
    6.5555    6.4467   -1.6213 H   0  0  0  0  0  0  0  0  0  0  0  0
    4.5454    3.6658   -4.2235 H   0  0  0  0  0  0  0  0  0  0  0  0
    2.2260    0.0898   -0.1702 H   0  0  0  0  0  0  0  0  0  0  0  0
   -0.2729    0.1055   -0.0884 H   0  0  0  0  0  0  0  0  0  0  0  0
    4.6888    6.2447    0.0182 H   0  0  0  0  0  0  0  0  0  0  0  0
    2.7117    3.4515   -2.5792 H   0  0  0  0  0  0  0  0  0  0  0  0
    3.4582    2.2378   -0.2094 H   0  0  0  0  0  0  0  0  0  0  0  0
   -1.4886    2.2570    0.0597 H   0  0  0  0  0  0  0  0  0  0  0  0
    1.2579    6.6142    2.1943 H   0  0  0  0  0  0  0  0  0  0  0  0
    1.2639    4.8306    2.1816 H   0  0  0  0  0  0  0  0  0  0  0  0
   -1.4198    4.6189   -0.2123 H   0  0  0  0  0  0  0  0  0  0  0  0
  1  2  1  0  0  0  0
  1  3  2  0  0  0  0
  1 19  1  0  0  0  0
  2  6  2  0  0  0  0
  2 20  1  0  0  0  0
  3  7  1  0  0  0  0
  3 21  1  0  0  0  0
  4  5  2  0  0  0  0
  4  8  1  0  0  0  0
  4 22  1  0  0  0  0
  5  9  1  0  0  0  0
  5 23  1  0  0  0  0
  6 10  1  0  0  0  0
  6 24  1  0  0  0  0
  7 10  2  0  0  0  0
  7 25  1  0  0  0  0
  8 11  2  0  0  0  0
  8 26  1  0  0  0  0
  9 12  2  0  0  0  0
  9 27  1  0  0  0  0
 10 13  1  0  0  0  0
 11 12  1  0  0  0  0
 11 13  1  0  0  0  0
 12 17  1  0  0  0  0
 13 16  2  0  0  0  0
 14 15  1  0  0  0  0
 14 17  1  0  0  0  0
 14 18  2  0  0  0  0
 15 16  1  0  0  0  0
 15 28  1  0  0  0  0
 15 29  1  0  0  0  0
 17 30  1  0  0  0  0
M  END
$$$$
