
  -OEChem-05262117483D

 25 26  0     0  0  0  0  0  0999 V2000
    1.8245   -1.4983   -0.0785 C   0  0  0  0  0  0  0  0  0  0  0  0
    0.6445   -1.0524    0.5269 C   0  0  0  0  0  0  0  0  0  0  0  0
    2.9877   -1.6559    0.6861 C   0  0  0  0  0  0  0  0  0  0  0  0
   -0.8144    0.7388    6.4995 C   0  0  0  0  0  0  0  0  0  0  0  0
   -1.7843   -0.2691    6.4613 C   0  0  0  0  0  0  0  0  0  0  0  0
    0.6225   -0.7789    1.8956 C   0  0  0  0  0  0  0  0  0  0  0  0
    2.9707   -1.3633    2.0493 C   0  0  0  0  0  0  0  0  0  0  0  0
    0.3418    0.6013    5.7320 C   0  0  0  0  0  0  0  0  0  0  0  0
   -1.5915   -1.4014    5.6681 C   0  0  0  0  0  0  0  0  0  0  0  0
    1.7854   -0.9320    2.6656 C   0  0  0  0  0  0  0  0  0  0  0  0
    0.5409   -0.5106    4.9008 C   0  0  0  0  0  0  0  0  0  0  0  0
   -0.4328   -1.5266    4.8903 C   0  0  0  0  0  0  0  0  0  0  0  0
    1.8211   -0.5815    4.1172 C   0  0  0  0  0  0  0  0  0  0  0  0
    2.8807   -0.2901    4.6671 O   0  0  0  0  0  0  0  0  0  0  0  0
   -0.1922   -2.6439    4.1322 O   0  0  0  0  0  0  0  0  0  0  0  0
    1.8393   -1.7195   -1.1429 H   0  0  0  0  0  0  0  0  0  0  0  0
   -0.2557   -0.9197   -0.0676 H   0  0  0  0  0  0  0  0  0  0  0  0
    3.9047   -2.0014    0.2157 H   0  0  0  0  0  0  0  0  0  0  0  0
   -0.9573    1.6163    7.1230 H   0  0  0  0  0  0  0  0  0  0  0  0
   -2.6894   -0.1820    7.0565 H   0  0  0  0  0  0  0  0  0  0  0  0
   -0.2938   -0.4317    2.3634 H   0  0  0  0  0  0  0  0  0  0  0  0
    3.8658   -1.4626    2.6558 H   0  0  0  0  0  0  0  0  0  0  0  0
    1.1170    1.3615    5.7583 H   0  0  0  0  0  0  0  0  0  0  0  0
   -2.3354   -2.1968    5.6597 H   0  0  0  0  0  0  0  0  0  0  0  0
   -0.9329   -3.2626    4.2328 H   0  0  0  0  0  0  0  0  0  0  0  0
  1  2  1  0  0  0  0
  1  3  2  0  0  0  0
  1 16  1  0  0  0  0
  2  6  2  0  0  0  0
  2 17  1  0  0  0  0
  3  7  1  0  0  0  0
  3 18  1  0  0  0  0
  4  5  1  0  0  0  0
  4  8  2  0  0  0  0
  4 19  1  0  0  0  0
  5  9  2  0  0  0  0
  5 20  1  0  0  0  0
  6 10  1  0  0  0  0
  6 21  1  0  0  0  0
  7 10  2  0  0  0  0
  7 22  1  0  0  0  0
  8 11  1  0  0  0  0
  8 23  1  0  0  0  0
  9 12  1  0  0  0  0
  9 24  1  0  0  0  0
 10 13  1  0  0  0  0
 11 12  2  0  0  0  0
 11 13  1  0  0  0  0
 12 15  1  0  0  0  0
 13 14  2  0  0  0  0
 15 25  1  0  0  0  0
M  END
$$$$
