15   
torsion grid (-165,)
C       -1.8337160537   -1.1399419497   -1.0746229657
C       -1.7602150954   -1.0310413987    1.4969931552
C       -1.2936936493    0.2918527793    0.9738954662
C       -1.0317675223   -0.9838146337    0.1664595257
C       -1.7323402010   -1.5379815175   -3.4020403305
O       -3.0435222856   -1.0079678619   -1.1538059850
O       -1.0410021878   -1.4043215571   -2.1433135205
H       -1.2263622178   -1.4794562947    2.3291768904
H       -2.8229804188   -1.2434844825    1.4481459638
H       -2.0419706376    0.9696576825    0.5762771809
H       -0.4284409237    0.7633008554    1.4293101201
H       -0.0073590522   -1.3345461677    0.1129923459
H       -0.9571565728   -1.7509613999   -4.1382230419
H       -2.2555036362   -0.6113644525   -3.6501330160
H       -2.4554160240   -2.3557951046   -3.3561951141
15   
torsion grid (-150,)
C       -1.8043668057   -1.0133476556   -1.1074909406
C       -1.7346543721   -1.0864669670    1.4597408256
C       -1.3369671395    0.2968562750    1.0486089287
C       -1.0055693007   -0.8821653089    0.1374069122
C       -1.7392769732   -1.6096545077   -3.3932740821
O       -2.9909870909   -0.7515032848   -1.2134132511
O       -1.0438868904   -1.4589300005   -2.1385994382
H       -1.1766161935   -1.5784042447    2.2503232701
H       -2.7848122290   -1.3492713771    1.3879654356
H       -2.1203670945    0.9627517434    0.7021224855
H       -0.4996753781    0.7727002908    1.5494881689
H        0.0298838133   -1.1950827235    0.0669337972
H       -0.9901223370   -1.9676705788   -4.0995442248
H       -2.1500844540   -0.6512876175   -3.7196551094
H       -2.5525459358   -2.3325987986   -3.2945646946
15   
torsion grid (-135,)
C       -1.7720753329   -0.8876579230   -1.1428112245
C       -1.7042542102   -1.1409345773    1.4079375431
C       -1.3793747891    0.2922892545    1.1119247740
C       -0.9824065420   -0.7787058089    0.1105168462
C       -1.7622069306   -1.6736309395   -3.3714283164
O       -2.9210548556   -0.5046990190   -1.2869048729
O       -1.0628278920   -1.5033741067   -2.1214607722
H       -1.1218491288   -1.6688588292    2.1565119485
H       -2.7395665173   -1.4510907602    1.3115614943
H       -2.1978926656    0.9398199967    0.8155924989
H       -0.5728882532    0.7689197271    1.6604039044
H        0.0638310122   -1.0510028442    0.0291127495
H       -1.0558398203   -2.1741202809   -4.0338245404
H       -2.0540827703   -0.7037349938   -3.7811213737
H       -2.6562029990   -2.2852238760   -3.2281142697
15   
torsion grid (-120,)
C       -1.7312491970   -0.7753968953   -1.1818707930
C       -1.6708663271   -1.1937055562    1.3442531289
C       -1.4259020011    0.2775603697    1.1565482294
C       -0.9619192425   -0.6848998387    0.0873927868
C       -1.7814466866   -1.7351779921   -3.3409777639
O       -2.8235564016   -0.2728806170   -1.3843591907
O       -1.0892403061   -1.5536294485   -2.0887010172
H       -1.0637719238   -1.7437134166    2.0563649450
H       -2.6868882495   -1.5542465292    1.2197840816
H       -2.2784875500    0.8977982853    0.9006024781
H       -0.6558145686    0.7562184172    1.7534766203
H        0.0957528562   -0.9102914753    0.0047371873
H       -1.1299843303   -2.3675874349   -3.9441942095
H       -1.9451647065   -0.7723501382   -3.8307871933
H       -2.7460402464   -2.2213535903   -3.1763218427
15   
torsion grid (-105,)
C       -1.6857127399   -0.6753910819   -1.2103141337
C       -1.6294778792   -1.2409971711    1.2884240704
C       -1.4802324245    0.2573758642    1.1973354254
C       -0.9459943052   -0.5998707080    0.0809227435
C       -1.8041857613   -1.7847160618   -3.2942463392
O       -2.6972296598   -0.0550664445   -1.4880487880
O       -1.1316702154   -1.6021494772   -2.0315493627
H       -0.9952420576   -1.7949406562    1.9733062726
H       -2.6193646319   -1.6589895813    1.1340247134
H       -2.3690719775    0.8373511174    0.9718342047
H       -0.7531865828    0.7449387713    1.8394195205
H        0.1241568492   -0.7628963593    0.0037437336
H       -1.2268678286   -2.5423568611   -3.8242535872
H       -1.8214651184   -0.8490339158   -3.8582022266
H       -2.8302764840   -2.1243726388   -3.1336845778
15   
torsion grid (-90,)
C       -1.6437344786   -0.5937830194   -1.2407070737
C       -1.5725319502   -1.2853229782    1.2386274999
C       -1.5336031066    0.2278987337    1.2216047617
C       -0.9364366681   -0.5364167028    0.0746405546
C       -1.8484534860   -1.8110117951   -3.2572923517
O       -2.5346634648    0.1520240491   -1.6056409181
O       -1.2127276567   -1.6514770715   -1.9725839343
H       -0.9057886139   -1.8232463232    1.9052789427
H       -2.5292693816   -1.7674328110    1.0618480384
H       -2.4608033131    0.7546646905    1.0206339690
H       -0.8500181448    0.7344633458    1.8959712175
H        0.1442712207   -0.6178650836    0.0015793115
H       -1.3770085543   -2.6841308028   -3.7085499181
H       -1.6903868960   -0.9246645713   -3.8764795861
H       -2.9218849764   -1.9734618528   -3.1333492837
15   
torsion grid (-75,)
C       -1.6020091552   -0.5319637454   -1.2554219616
C       -1.5101499595   -1.3213910290    1.2152796677
C       -1.6051020934    0.1928347671    1.2453741159
C       -0.9346451089   -0.4877188684    0.0864129829
C       -1.9032280288   -1.8261607446   -3.2110521851
O       -2.3287282854    0.3274301884   -1.7188048639
O       -1.3223226328   -1.6934551022   -1.8973592734
H       -0.8101907008   -1.8171902453    1.8807843016
H       -2.4188407748   -1.8811516005    1.0148886825
H       -2.5729521423    0.6449894227    1.0534667454
H       -0.9764532805    0.7363791794    1.9440028030
H        0.1504680581   -0.4580779200    0.0251670096
H       -1.5688486135   -2.7957545866   -3.5802181093
H       -1.5564013965   -1.0235719514   -3.8665398748
H       -2.9936762349   -1.7916324650   -3.1505754243
15   
torsion grid (-60,)
C       -1.5360727713   -0.4933426453   -1.2820878279
C       -1.4370071275   -1.3542740608    1.1870169774
C       -1.6818632696    0.1430002594    1.2388075259
C       -0.9192564904   -0.4566119039    0.0872951670
C       -1.9618184572   -1.8410599416   -3.1770587836
O       -2.0603846298    0.4501698328   -1.8437558803
O       -1.4339456639   -1.7252071427   -1.8392735656
H       -0.7127826501   -1.7889511897    1.8693398907
H       -2.2799011690   -1.9977111250    0.9538190795
H       -2.6853646417    0.5027528851    1.0337780167
H       -1.1264031517    0.7351363322    1.9595940182
H        0.1554278767   -0.2912409846    0.0555802715
H       -1.7889217512   -2.8769016502   -3.4691471045
H       -1.4429704190   -1.1574687759   -3.8534307873
H       -3.0298259859   -1.6103973963   -3.1867441325
15   
torsion grid (-45,)
C       -1.4240454295   -0.4734842650   -1.3075235942
C       -1.3594493549   -1.3816893931    1.1619032143
C       -1.7661913598    0.0765062533    1.2056614926
C       -0.8783294684   -0.4335423502    0.0915490177
C       -2.0022909666   -1.8481041196   -3.1405398856
O       -1.7247460684    0.5083351424   -1.9605416987
O       -1.5127934760   -1.7382305389   -1.7875939835
H       -0.6323762149   -1.7395955375    1.8848483665
H       -2.1118361095   -2.1111152223    0.8793597466
H       -2.7911026545    0.3287216721    0.9508888834
H       -1.3153924907    0.7227824937    1.9524621747
H        0.1631308565   -0.1224858287    0.1184844412
H       -2.0130596503   -2.9157090457   -3.3601748207
H       -1.3400246513   -1.3184389870   -3.8294742226
H       -3.0077722552   -1.4274772626   -3.2181361155
15   
torsion grid (-30,)
C       -1.3153112888   -0.4479192665   -1.2948945531
C       -1.2740127825   -1.4017847798    1.1650410293
C       -1.8411689227   -0.0041347916    1.1908336406
C       -0.8319186789   -0.4041069746    0.1227973304
C       -2.0852146479   -1.8028914588   -3.0708985469
O       -1.4070135497    0.5301958547   -2.0136943830
O       -1.6063614989   -1.7047541526   -1.7134336779
H       -0.5531321017   -1.6801128521    1.9282312824
H       -1.9200789354   -2.2085558697    0.8356173971
H       -2.8715264809    0.1352348533    0.8776540218
H       -1.5053549323    0.6860005925    1.9585279644
H        0.1536830588    0.0434610433    0.2102865509
H       -2.2835579607   -2.8623060533   -3.2337903403
H       -1.3264831680   -1.4402262695   -3.7683042474
H       -2.9973071616   -1.2149422921   -3.1986481392
15   
torsion grid (-15,)
C       -1.2214030529   -0.4460771103   -1.3160482329
C       -1.2027386633   -1.4045112198    1.1442181847
C       -1.9140418793   -0.0805564990    1.1297353567
C       -0.8046225011   -0.3712146646    0.1156289011
C       -2.1634023635   -1.7763014090   -3.0273344093
O       -1.1248300263    0.4802668215   -2.1006538512
O       -1.7014742780   -1.6667764566   -1.6654017833
H       -0.4945000178   -1.5992216428    1.9442677285
H       -1.7396656648   -2.2759066269    0.7864342652
H       -2.9336229137   -0.0537496854    0.7572990711
H       -1.6940055166    0.6476053599    1.9040514431
H        0.1158701234    0.1861582858    0.2531296263
H       -2.5285391649   -2.7983494885   -3.1297310511
H       -1.3421673203   -1.5884364117   -3.7228204541
H       -2.9650254422   -1.0590151212   -3.2193065019
15   
torsion grid (0,)
C       -1.1317727720   -0.4659992055   -1.3359300535
C       -1.1373852419   -1.4122392429    1.1266588377
C       -1.9577074470   -0.1575527505    1.0793692972
C       -0.7864284703   -0.3484502595    0.1073572236
C       -2.2076983923   -1.7516975408   -3.0027018645
O       -0.8549654288    0.3740217215   -2.1735970994
O       -1.7877224181   -1.6189496283   -1.6298506913
H       -0.4422631107   -1.5413577807    1.9510177566
H       -1.5832006334   -2.3263355384    0.7516647750
H       -2.9586059241   -0.2202493850    0.6640580696
H       -1.8296161029    0.5887917757    1.8569978100
H        0.0806991118    0.2795593925    0.2781425446
H       -2.7218902493   -2.7113596249   -3.0585266173
H       -1.3414388115   -1.7389935436   -3.6680886986
H       -2.8815841961   -0.9366954899   -3.2778611772
15   
torsion grid (15,)
C       -1.0989584345   -0.4592621437   -1.3346304279
C       -1.0788426771   -1.3947654913    1.1243214585
C       -2.0032184109   -0.2167307734    1.0772321756
C       -0.8136447267   -0.2916580384    0.1141155320
C       -2.2546699963   -1.7078034082   -2.9770869406
O       -0.6727659561    0.2769840008   -2.2067762616
O       -1.8965175393   -1.5298660470   -1.5923286682
H       -0.3778721847   -1.4688686191    1.9503016848
H       -1.4397391448   -2.3399523094    0.7352647772
H       -2.9895287009   -0.3630389943    0.6495042208
H       -1.9454019723    0.5309631645    1.8620664114
H        0.0046596571    0.3946744573    0.2986281383
H       -2.8945641804   -2.5900834128   -3.0015661422
H       -1.3602043302   -1.8634765899   -3.5846511704
H       -2.7916078190   -0.8320012768   -3.3494565986
15   
torsion grid (30,)
C       -1.0965947144   -0.4851279000   -1.3196448768
C       -1.0402904504   -1.3953743028    1.1350649614
C       -2.0487525302   -0.2870703927    1.1000048743
C       -0.8688355998   -0.2623639497    0.1310134217
C       -2.3009422478   -1.7002302362   -2.9532893497
O       -0.5234320257    0.1226190922   -2.2064614210
O       -2.0240012915   -1.4502997053   -1.5612784457
H       -0.3279029960   -1.4250682711    1.9538144175
H       -1.3340283767   -2.3605428165    0.7379174747
H       -3.0240218492   -0.5030794776    0.6777828488
H       -2.0377192013    0.4551640701    1.8921110001
H       -0.0866654821    0.4645747869    0.3167684999
H       -3.0534462051   -2.4889871215   -2.9637243145
H       -1.3951181035   -2.0250849503   -3.4705601356
H       -2.6831300021   -0.7970208431   -3.4349730098
15   
torsion grid (45,)
C       -1.0819756388   -0.4932679444   -1.3272392579
C       -0.9739473661   -1.3689903803    1.1219807392
C       -2.0633058450   -0.3373462323    1.1036250766
C       -0.9085465876   -0.2160423959    0.1216670126
C       -2.3186456859   -1.6683543691   -2.9658498299
O       -0.3771289840   -0.0272404524   -2.2048433650
O       -2.1211127228   -1.3340157328   -1.5779254343
H       -0.2472394513   -1.3516012936    1.9281619066
H       -1.2022420287   -2.3513741541    0.7227814899
H       -3.0255122725   -0.6251553401    0.6952628084
H       -2.0965384319    0.3979677903    1.9017354557
H       -0.1646655604    0.5508093066    0.3048457511
H       -3.1768264228   -2.3404201013   -2.9845153493
H       -1.4325062958   -2.1640609621   -3.3695758967
H       -2.5216681934   -0.7678029764   -3.5500615121
15   
torsion grid (60,)
C       -1.0943921979   -0.5201838096   -1.3244116996
C       -0.9167836534   -1.3357977215    1.1270158094
C       -2.0911289701   -0.3965762867    1.1160068513
C       -0.9704825068   -0.1865227025    0.1193622796
C       -2.3653031675   -1.6283583059   -2.9823150697
O       -0.2793267181   -0.2015355337   -2.1717505928
O       -2.2230722209   -1.2230047780   -1.6062300434
H       -0.1807144524   -1.2533995822    1.9203947293
H       -1.0691892520   -2.3382157048    0.7402500849
H       -3.0324972603   -0.7682104676    0.7276496306
H       -2.1739845010    0.3364118224    1.9128083450
H       -0.2757534235    0.6283515242    0.2898442213
H       -3.3054589578   -2.1782965742   -3.0285025526
H       -1.5304376707   -2.2666947766   -3.2816532394
H       -2.3980063970   -0.7532617554   -3.6353698082
15   
torsion grid (75,)
C       -1.5573498170   -1.7842549112   -0.9694560769
C       -2.0483655759   -0.4942889745    1.2159903167
C       -0.7539410119    0.0940165719    0.7132781875
C       -1.0922730388   -1.3372697153    0.3739890523
C       -2.0485020927   -1.1519343654   -3.1936175532
O       -1.8973388466   -2.9253558907   -1.2254551002
O       -1.5511078150   -0.7862642675   -1.8904014292
H       -2.1395382233   -0.7566651222    2.2651390223
H       -2.9691268215   -0.1654299228    0.7441130975
H       -0.8063644743    0.8191743694   -0.0908858553
H        0.0511743116    0.2499874815    1.4250914156
H       -0.5811490630   -2.1312965281    0.9081803583
H       -1.9905634443   -0.2432957232   -3.7931388880
H       -3.0807455321   -1.5037493131   -3.1252050998
H       -1.4303474385   -1.9408459274   -3.6282317024
15   
torsion grid (90,)
C       -1.6268780992   -1.7400320007   -0.9805723548
C       -2.0253453688   -0.5586268051    1.2875269942
C       -0.8102918240    0.1299613332    0.7073000753
C       -1.0905395593   -1.3052307983    0.3453562183
C       -1.9800784312   -1.1686763462   -3.2461236427
O       -2.1387455421   -2.8260723850   -1.1828334546
O       -1.4554908456   -0.8081087139   -1.9516218243
H       -2.0172114496   -0.8560596606    2.3312810755
H       -3.0003650771   -0.2735581202    0.9038532192
H       -0.9707418137    0.8763852231   -0.0628897879
H        0.0355665578    0.3200603730    1.3613170886
H       -0.4915918245   -2.0827394564    0.8099004122
H       -1.7718709084   -0.3159687647   -3.8925292980
H       -3.0552556324   -1.3539109868   -3.1857187479
H       -1.4835616764   -2.0670364284   -3.6200996339
15   
torsion grid (105,)
C       -1.7049433946   -1.6868321427   -0.9918657515
C       -1.9940987381   -0.6298874615    1.3612843594
C       -0.8762378171    0.1593983030    0.7098912870
C       -1.1025427853   -1.2769594867    0.3188097309
C       -1.9151867885   -1.2017033747   -3.2946571219
O       -2.3883598801   -2.6817746251   -1.1477889011
O       -1.3714490428   -0.8499167212   -2.0052289305
H       -1.8768381518   -0.9554101878    2.3901342683
H       -3.0149537181   -0.3966409293    1.0739974811
H       -1.1489658399    0.9206277600   -0.0135624307
H        0.0070653693    0.3877144186    1.2989462299
H       -0.4092953211   -2.0257150658    0.6930672019
H       -1.5575983878   -0.4337975423   -3.9806691359
H       -3.0072858145   -1.2101921667   -3.2596401039
H       -1.5604677632   -2.1887531252   -3.6003893679
15   
torsion grid (120,)
C       -1.7876550843   -1.6214328163   -0.9909500468
C       -1.9574512525   -0.6995267285    1.4345720682
C       -0.9544860186    0.1888790803    0.7241596859
C       -1.1210266791   -1.2500126222    0.3035627155
C       -1.8626423594   -1.2432594036   -3.3227002421
O       -2.6465492817   -2.4750149590   -1.1107488445
O       -1.2967712484   -0.9125171793   -2.0371455882
H       -1.7313738362   -1.0398817006    2.4403826872
H       -3.0128108725   -0.5348760484    1.2399711688
H       -1.3375536985    0.9524181430    0.0544216729
H       -0.0418427630    0.4624454363    1.2452504198
H       -0.3315075871   -1.9475534957    0.5735431352
H       -1.3583125292   -0.5938694544   -4.0383050124
H       -2.9394298827   -1.0575358753   -3.3247596463
H       -1.6815635477   -2.2942510963   -3.5602176118
15   
torsion grid (135,)
C       -1.8414631433   -1.5499699802   -0.9891701045
C       -1.9124232685   -0.7739851016    1.4885098463
C       -1.0371859919    0.2135961431    0.7476436149
C       -1.1216258477   -1.2288940740    0.2894431154
C       -1.8096434664   -1.2955815263   -3.3394541493
O       -2.8654257869   -2.2010678045   -1.0808055911
O       -1.2092254069   -1.0081882192   -2.0594685182
H       -1.5920161819   -1.1199947156    2.4665441320
H       -2.9882141186   -0.6960720721    1.3659943340
H       -1.5251020852    0.9633096546    0.1320964300
H       -0.1118569271    0.5430959663    1.2105000276
H       -0.2434631263   -1.8478549741    0.4561814012
H       -1.1772748023   -0.7987909995   -4.0753248240
H       -2.8288500611   -0.9037334753   -3.3790477704
H       -1.8346143749   -2.3734957619   -3.5171167184
15   
torsion grid (150,)
C       -1.8582585137   -1.4660567696   -1.0098513472
C       -1.8639160489   -0.8475334393    1.5067549634
C       -1.1196738056    0.2357721386    0.7677808514
C       -1.1030304900   -1.2010262519    0.2561271689
C       -1.7581068485   -1.3383599283   -3.3690055719
O       -3.0016832408   -1.8770605245   -1.0866441103
O       -1.1185290925   -1.1235859718   -2.0942038297
H       -1.4625398780   -1.1958061113    2.4536806542
H       -2.9466834609   -0.8640300735    1.4351235769
H       -1.7008888053    0.9603702787    0.2053069659
H       -0.1983494021    0.6240907874    1.1910706105
H       -0.1562758550   -1.7271423895    0.3373291703
H       -1.0259433383   -1.0333461680   -4.1167755579
H       -2.6641416707   -0.7325487830   -3.4471891005
H       -2.0209444020   -2.3915897746   -3.4942026199
15   
torsion grid (165,)
C       -1.8609006895   -1.3717820600   -1.0228631835
C       -1.8236347436   -0.9133725532    1.5205946097
C       -1.1922276250    0.2573117371    0.8212523552
C       -1.0810522121   -1.1524083412    0.2302365379
C       -1.7342256388   -1.3962357039   -3.3836750208
O       -3.0623841592   -1.5621551805   -1.0904069787
O       -1.0662355743   -1.2419955942   -2.1149036729
H       -1.3628621031   -1.2790442340    2.4332434942
H       -2.9035185669   -1.0088876708    1.4755065493
H       -1.8465025397    0.9585582461    0.3124160475
H       -0.2849509259    0.6909334863    1.2303425144
H       -0.0930957690   -1.6007530185    0.2495323058
H       -0.9561945163   -1.2789243154   -4.1381108014
H       -2.5055106036   -0.6314963710   -3.5033935144
H       -2.1959167024   -2.3838734955   -3.4569082917
15   
torsion grid (180,)
C       -1.8540776926   -1.2678994129   -1.0492499919
C       -1.7946957949   -0.9792088472    1.5138765200
C       -1.2530861620    0.2721813448    0.8910217755
C       -1.0605813388   -1.0824788625    0.1958698410
C       -1.7265815563   -1.4734176332   -3.4007115147
O       -3.0711230893   -1.2837626224   -1.1181051486
O       -1.0455341549   -1.3410780377   -2.1363298155
H       -1.2924710840   -1.3816948327    2.3882332245
H       -2.8670598731   -1.1387663267    1.4732949232
H       -1.9600638922    0.9594024893    0.4372475517
H       -0.3656694807    0.7323471361    1.3143417004
H       -0.0499267126   -1.4749395742    0.1735739446
H       -0.9379751142   -1.5322429716   -4.1509732873
H       -2.3664677434   -0.6062873076   -3.5813828349
H       -2.3387374781   -2.3783418189   -3.4134152247
