17   
torsion grid (-75,)
C        0.0626760777    1.0983046237    1.8975776202
C       -4.3973400122   -2.2465575814    3.3493321825
C        0.2963248288    0.7795661724    3.2598418604
C       -0.4394209009    0.0200284761    1.1139839005
C       -4.1100825768   -1.6289183442    4.6100459330
C       -3.2997763431   -1.9850606553    2.5725185223
C       -1.2058778328   -0.7419021210    2.9676664890
N       -0.3517666814   -0.2569626446    3.8778404357
N       -0.7060464717   -1.1307877385    1.7804192746
N       -2.9306319395   -1.0345585014    4.6225998031
N       -2.4262693247   -1.2606475214    3.3650802379
H        0.4219618878    2.0206586975    1.4558052318
H       -5.2828116827   -2.7985169765    3.0650734156
H        1.0191227707    1.3310428173    3.8561706538
H       -0.2916191290   -0.0303139017    0.0365724038
H       -4.7296550624   -1.5985001676    5.4987022437
H       -3.0351538331   -2.2433152561    1.5582963591
17   
torsion grid (-60,)
C        0.2241581441    1.0919923469    1.8627939838
C       -4.4174705765   -2.3264395132    3.3982390215
C        0.3024475144    0.8146464502    3.2426538452
C       -0.3542315320    0.0659628501    1.0861751894
C       -4.1222796505   -1.7047283395    4.6516096771
C       -3.3575468808   -2.0021622900    2.5890113645
C       -1.3114807048   -0.6567045589    2.9238535674
N       -0.4825490282   -0.1193312817    3.8286309145
N       -0.8584075128   -1.0197547481    1.7114528596
N       -2.9725377468   -1.0501839611    4.6295958914
N       -2.4999315042   -1.2410497077    3.3579657701
H        0.7215459144    1.9460451957    1.4170534786
H       -5.2817595848   -2.9211587076    3.1358363012
H        1.0154597933    1.3248598996    3.8865513674
H       -0.1763480313   -0.0117676169    0.0150769742
H       -4.7117590981   -1.7114416409    5.5608474499
H       -3.1154086117   -2.2376741119    1.5637773036
17   
torsion grid (-45,)
C        0.3420835654    1.0599158704    1.8461169427
C       -4.4219436129   -2.3733250772    3.4273599784
C        0.2946642259    0.8436095658    3.2319423290
C       -0.2973910201    0.0825711509    1.0687078239
C       -4.1146814097   -1.7587865298    4.6793115340
C       -3.3920371520   -2.0052175096    2.5960508461
C       -1.3745904627   -0.6033021926    2.8950664963
N       -0.5747747699   -0.0154082322    3.7920463830
N       -0.9816356628   -0.9183049113    1.6502855788
N       -2.9857774131   -1.0674413402    4.6356820553
N       -2.5414942178   -1.2267572828    3.3518845953
H        0.9458298629    1.8450227775    1.4044421147
H       -5.2731716443   -2.9920379928    3.1779997410
H        0.9762904581    1.3527609689    3.9106656936
H       -0.1059824185   -0.0109667692    0.0011394677
H       -4.6786077662   -1.7954829970    5.6038269641
H       -3.1707171578   -2.2194816838    1.5616287444
17   
torsion grid (-30,)
C        0.4309654041    1.0070660473    1.8444145367
C       -4.4255426005   -2.4083096021    3.4473513676
C        0.2723609134    0.8685837917    3.2286523350
C       -0.2697690285    0.0851671762    1.0588331322
C       -4.1058399928   -1.8091850401    4.7024188452
C       -3.4223489195   -1.9995375876    2.6011949465
C       -1.4277864152   -0.5571168735    2.8807471367
N       -0.6628746382    0.0772534421    3.7733523227
N       -1.0971120135   -0.8147512477    1.6066593295
N       -2.9951157794   -1.0885477802    4.6470067110
N       -2.5770181641   -1.2124031395    3.3519615334
H        1.1266972368    1.7184663332    1.4127842922
H       -5.2664366549   -3.0435241605    3.2043763258
H        0.9180680136    1.3986795129    3.9268950939
H       -0.0743299941   -0.0167058949   -0.0073107861
H       -4.6469397314   -1.8770952316    5.6386833631
H       -3.2200522226   -2.1888872169    1.5582027267
17   
torsion grid (-15,)
C        0.5245188310    0.9448097957    1.8473791202
C       -4.4077326843   -2.4369064784    3.4590538705
C        0.2642104598    0.9007967057    3.2199292572
C       -0.2331294418    0.0807825871    1.0534988143
C       -4.0749928389   -1.8534124669    4.7173933088
C       -3.4339404033   -1.9875772504    2.5985707522
C       -1.4616677096   -0.5077717752    2.8623325069
N       -0.7290933249    0.1746970225    3.7454388157
N       -1.1826375872   -0.7090979926    1.5662565424
N       -2.9839869847   -1.1034775513    4.6492946443
N       -2.5927277736   -1.1915185412    3.3435862396
H        1.3030653011    1.5740179770    1.4294613565
H       -5.2378290404   -3.0885585822    3.2225391468
H        0.8729386754    1.4614382111    3.9278789180
H       -0.0383342240   -0.0276239214   -0.0122588213
H       -4.5914255505   -1.9530721316    5.6646865507
H       -3.2522166219   -2.1519351518    1.5477140146
17   
torsion grid (0,)
C        0.5834876356    0.8941389069    1.8517505110
C       -4.3948482660   -2.4482963231    3.4605841293
C        0.2319476862    0.9589376195    3.2020100355
C       -0.2252715144    0.0914121216    1.0455568975
C       -4.0469771315   -1.8847539713    4.7237214666
C       -3.4547114893   -1.9531739495    2.5877172997
C       -1.5095354768   -0.4353437662    2.8401054119
N       -0.8134000225    0.2988117150    3.7107742143
N       -1.2760620317   -0.5796517202    1.5274207583
N       -2.9790844877   -1.1029170257    4.6465983098
N       -2.6191118004   -1.1488792638    3.3299606859
H        1.4345941634    1.4354419547    1.4525135010
H       -5.2128472632   -3.1167307433    3.2287841988
H        0.8054329191    1.5604709206    3.9059564141
H       -0.0301869342   -0.0212817552   -0.0197801398
H       -4.5356958081   -2.0215801045    5.6810229954
H       -3.2954239865   -2.0877742458    1.5290557846
17   
torsion grid (15,)
C        0.6381196386    0.8086750303    1.8761998251
C       -4.3729582796   -2.4692359851    3.4652906683
C        0.2127517698    0.9864573998    3.1952770709
C       -0.2199654677    0.0781009694    1.0515142090
C       -4.0124591114   -1.9220503171    4.7322932003
C       -3.4639146101   -1.9339248499    2.5834614336
C       -1.5458808634   -0.3819889912    2.8286587921
N       -0.8823086933    0.3964244067    3.6867633839
N       -1.3581696088   -0.4604205125    1.5028370036
N       -2.9666511200   -1.1117110198    4.6490477668
N       -2.6347286268   -1.1212724557    3.3240851620
H        1.5533011063    1.2544814390    1.5015207439
H       -5.1789436326   -3.1532974691    3.2370520936
H        0.7617155681    1.6263654383    3.8846440722
H       -0.0243671204   -0.0332057901   -0.0138401528
H       -4.4764824990   -2.0912467821    5.6966853275
H       -3.3243876989   -2.0424471427    1.5189864921
17   
torsion grid (30,)
C        0.6640449323    0.7189112588    1.9107966276
C       -4.3529794562   -2.4880138526    3.4650021765
C        0.1792371638    1.0165756547    3.1893511655
C       -0.2320865467    0.0580294323    1.0643024378
C       -3.9793803487   -1.9589337784    4.7365591354
C       -3.4770198722   -1.9109869121    2.5766471458
C       -1.5896958372   -0.3242594155    2.8193027874
N       -0.9625430515    0.5002351912    3.6632416159
N       -1.4427674625   -0.3334216806    1.4854927186
N       -2.9573621214   -1.1197334081    4.6500803937
N       -2.6546346636   -1.0910475334    3.3177573210
H        1.6323705394    1.0652430749    1.5661259417
H       -5.1461622265   -3.1875207630    3.2388021285
H        0.7110497030    1.6962833397    3.8531558683
H       -0.0302276548   -0.0545658889    0.0003621158
H       -4.4175203719   -2.1624974567    5.7064133641
H       -3.3579105964   -1.9914466722    1.5070963771
17   
torsion grid (45,)
C        0.6720823360    0.6171653901    1.9536114865
C       -4.3228344782   -2.5079951216    3.4601335343
C        0.1476798245    1.0379044084    3.1854865256
C       -0.2547877469    0.0239026596    1.0832996000
C       -3.9397134453   -1.9948366181    4.7365852154
C       -3.4796438110   -1.8904342275    2.5685415103
C       -1.6289264269   -0.2656439620    2.8137702682
N       -1.0395878485    0.6034028100    3.6428300515
N       -1.5210015029   -0.1995490289    1.4769343998
N       -2.9431364476   -1.1266968098    4.6501842150
N       -2.6667900237   -1.0615756372    3.3121607683
H        1.6827035644    0.8587427741    1.6433508412
H       -5.1013007168   -3.2239191030    3.2342625098
H        0.6766036584    1.7509604383    3.8150161411
H       -0.0437280303   -0.0956467010    0.0220484634
H       -4.3538102031   -2.2316960876    5.7094736112
H       -3.3785293484   -1.9441272036    1.4953172144
17   
torsion grid (60,)
C        0.6617108887    0.5054569652    2.0050442438
C       -4.2715414189   -2.5236048204    3.4461052863
C        0.1208458000    1.0551217608    3.1850416799
C       -0.2915891027   -0.0195483504    1.1072688839
C       -3.8858205996   -2.0228632207    4.7287068112
C       -3.4646015518   -1.8613524124    2.5551963761
C       -1.6653634748   -0.1859883465    2.8103948069
N       -1.1155158518    0.7241075869    3.6252096464
N       -1.5906441405   -0.0433354045    1.4758290492
N       -2.9217056586   -1.1203150679    4.6466817060
N       -2.6685715609   -1.0178942509    3.3041937791
H        1.7042884780    0.6311741713    1.7353903411
H       -5.0289119074   -3.2611697842    3.2182274097
H        0.6682137510    1.7865491935    3.7755587461
H       -0.0692837666   -0.1564465503    0.0504933501
H       -4.2766254011   -2.2949739232    5.7020900351
H       -3.3787993854   -1.8880466468    1.4794995345
17   
torsion grid (75,)
C        0.6100626206    0.3649696634    2.0752772001
C       -4.1805017816   -2.5383630664    3.4200691609
C        0.0825917483    1.0627563133    3.1918888075
C       -0.3664503045   -0.0792443288    1.1383151916
C       -3.8026502901   -2.0418573643    4.7100709138
C       -3.4272155259   -1.8168223705    2.5321459740
C       -1.7213791543   -0.0551745825    2.8021286132
N       -1.2135686923    0.8921578654    3.6006968050
N       -1.6617780590    0.1442327072    1.4727089460
N       -2.8927741528   -1.0873319814    4.6356144768
N       -2.6655440452   -0.9430072997    3.2886162936
H        1.6724177424    0.3481149177    1.8605609363
H       -4.8999687948   -3.3120959478    3.1893585330
H        0.6817390901    1.7793475950    3.7483764638
H       -0.1266657259   -0.2522341503    0.0905621757
H       -4.1638242352   -2.3567312436    5.6821382891
H       -3.3579240602   -1.8140378697    1.4548554630
