19   
torsion grid (-165,)
C       -0.1979394267   -0.7694072940    0.9909296784
C        1.2487588593   -0.1228562531   -0.3507367720
C       -0.2050797565    0.3454233580   -0.0841751009
C       -1.1508758372    0.0034958633   -1.2385359766
C       -0.7796279779    2.8493280516   -0.5420862938
C       -0.4100222018    1.7639666338    0.4767801241
O        1.0954646681   -1.2590170552    0.5410921306
H       -0.1470874185   -0.4066696480    2.0266850108
H       -0.9776116261   -1.5360817963    0.9073037664
H        1.4821110758   -0.4416209030   -1.3737974689
H        2.0270708853    0.5649133033    0.0063568676
H       -2.1985263617    0.1419358657   -0.9457813042
H       -1.0218779353   -1.0418163836   -1.5386199583
H       -0.9606666239    0.6282512328   -2.1169592240
H       -0.0268194478    2.9380780050   -1.3344992351
H       -0.8543454543    3.8244841031   -0.0494834495
H       -1.7423262706    2.6456929898   -1.0190410296
H       -1.2176534814    1.7124658703    1.2203396310
H        0.4870626262    2.0609727376    1.0330856757
19   
torsion grid (-150,)
C       -0.2632587160   -0.7537993412    0.9773561166
C        1.2758914820   -0.1932834652   -0.2901348285
C       -0.1588687554    0.3621721116   -0.0928753532
C       -1.0586798129    0.0441191669   -1.2915701081
C       -0.9126396330    2.8470219102   -0.5060592743
C       -0.3116826592    1.8042602552    0.4459799903
O        0.9955048055   -1.3431572386    0.5512904998
H       -0.2021584876   -0.3968317449    2.0147153842
H       -1.0995848794   -1.4560970623    0.8772287926
H        1.5554549030   -0.4937562893   -1.3071321791
H        2.0696521115    0.4319448996    0.1408964265
H       -2.1165746854    0.1893356310   -1.0448844338
H       -0.9273942534   -1.0004986873   -1.5930010880
H       -0.8238410791    0.6740300758   -2.1553596749
H       -0.3120131078    2.9712029384   -1.4142740437
H       -0.9616744203    3.8224896737   -0.0106228247
H       -1.9282378796    2.5813598872   -0.8123228077
H       -0.9569793900    1.7612754558    1.3334938609
H        0.6605762950    2.1564812270    0.8097832239
19   
torsion grid (-135,)
C       -0.3349012454   -0.7384455337    0.9672562394
C        1.2830194125   -0.2571161089   -0.2229409922
C       -0.1362478676    0.3633728731   -0.1088660015
C       -0.9721147756    0.0655838590   -1.3572986095
C       -1.0390495472    2.8211638943   -0.4410793708
C       -0.2157008438    1.8304775437    0.3939897112
O        0.9082496452   -1.3909547021    0.6008688946
H       -0.3006650522   -0.3712601302    2.0022340456
H       -1.1978608285   -1.4036963050    0.8409224676
H        1.6080546725   -0.5699912438   -1.2227715210
H        2.0755824494    0.3359862421    0.2536193578
H       -2.0368495671    0.2544503654   -1.1843247460
H       -0.8621576343   -0.9871682947   -1.6382170456
H       -0.6559035883    0.6735189647   -2.2112145088
H       -0.6487630352    2.9275701542   -1.4583611085
H       -1.0125471120    3.8120329665    0.0247452661
H       -2.0890430148    2.5223503216   -0.5164766412
H       -0.6242027539    1.8262579845    1.4118277855
H        0.8027673227    2.2240947476    0.4930564412
19   
torsion grid (-120,)
C       -0.4333293081   -0.7212508383    0.9598124151
C        1.2611228423   -0.3219046893   -0.1458671226
C       -0.1403281010    0.3515356835   -0.1284026099
C       -0.9024654503    0.0804763661   -1.4264003779
C       -1.1488760000    2.7746995693   -0.3349732402
C       -0.1370863948    1.8323611162    0.3316651145
O        0.8079509552   -1.4164993856    0.6895933107
H       -0.4569646112   -0.3287937140    1.9856102431
H       -1.3041593874   -1.3679286374    0.7951041303
H        1.6267608896   -0.6740129077   -1.1184506446
H        2.0473126916    0.2604431157    0.3540602736
H       -1.9634072089    0.3346237182   -1.3359103245
H       -0.8332061598   -0.9808050502   -1.6875946005
H       -0.4876083887    0.6563085389   -2.2611517286
H       -0.9976178736    2.8362976996   -1.4165289674
H       -1.0421639416    3.7863412641    0.0708403895
H       -2.1836572724    2.4598898837   -0.1604710082
H       -0.2709344457    1.8700270032    1.4187029093
H        0.8640949833    2.2422014098    0.1468808237
19   
torsion grid (-105,)
C       -0.5221956791   -0.6761825102    0.9429726551
C        1.2515568262   -0.3699514539   -0.0734429625
C       -0.1260127725    0.3451677232   -0.1624273829
C       -0.8228174364    0.0937107640   -1.4983353489
C       -1.2204218905    2.7200325075   -0.2136411430
C       -0.0632700290    1.8290033989    0.2562961600
O        0.7355691280   -1.3835978142    0.8254953426
H       -0.6480431758   -0.2416996054    1.9437081115
H       -1.3741960534   -1.3305962552    0.7201261627
H        1.6352597006   -0.8065949200   -1.0040497871
H        2.0419213914    0.2234922479    0.4059636246
H       -1.8799777660    0.3757607294   -1.4641660588
H       -0.7683621506   -0.9681069736   -1.7609383760
H       -0.3477693795    0.6630243891   -2.3060361966
H       -1.2715865703    2.7728199128   -1.3048057205
H       -1.0906141264    3.7408692652    0.1609944220
H       -2.1900704973    2.3581486138    0.1484116541
H        0.0409243701    1.8904903064    1.3455493505
H        0.8645437134    2.2503605410   -0.1546760146
19   
torsion grid (-90,)
C       -0.5799136026   -0.5144444798    0.9179858713
C        1.2540084164   -0.3642889638   -0.0407881629
C       -0.0810733494    0.4071935044   -0.2296860184
C       -0.7530523954    0.1839099749   -1.5816459026
C       -1.1978019521    2.7432192361   -0.0687301026
C        0.0554078580    1.8890275997    0.1573629243
O        0.7192865501   -1.1388891190    1.0631517489
H       -0.8908683496   -0.0056192509    1.8392929955
H       -1.3465510828   -1.2461088549    0.6310088502
H        1.5490596182   -1.0072753393   -0.8803398053
H        2.1126018060    0.2430126790    0.2729921600
H       -1.7992102970    0.5061738727   -1.5710519346
H       -0.7359258449   -0.8773803256   -1.8511390583
H       -0.2388066294    0.7404260849   -2.3745721800
H       -1.4468828546    2.8216942624   -1.1309013943
H       -1.0464079927    3.7589613770    0.3112041531
H       -2.0699371875    2.3247178752    0.4484297429
H        0.3699449904    1.9510550984    1.2058878484
H        0.8780695989    2.3182498205   -0.4316487896
19   
torsion grid (-75,)
C       -0.6094500471   -0.4042555486    0.9295356076
C        1.2643118910   -0.3549401463    0.0291698727
C       -0.0318789356    0.4584058166   -0.2242481022
C       -0.6722556481    0.2018989778   -1.5874772755
C       -1.2118819205    2.7284598206    0.1108405273
C        0.1093225824    1.9497212696    0.1042497051
O        0.6410942827   -1.1226062683    1.0917969436
H       -0.8800495795    0.1433730445    1.8414885192
H       -1.4292626466   -1.0796396437    0.6540422676
H        1.5900985985   -0.9996490497   -0.7970077727
H        2.1200703964    0.2243545397    0.3993162929
H       -1.7042165326    0.5657821218   -1.6228614371
H       -0.6918992800   -0.8697421402   -1.8124022394
H       -0.1112102350    0.7035694465   -2.3851773627
H       -1.6597738158    2.7802851244   -0.8861536182
H       -1.0555392001    3.7559897889    0.4550265491
H       -1.9440384773    2.2634605399    0.7816874995
H        0.5899217246    2.0438938025    1.0860950949
H        0.7989356314    2.4054604994   -0.6194725052
19   
torsion grid (-60,)
C       -0.6782857567   -0.3638201998    0.8568826282
C        1.2416484343   -0.3882899473    0.0689462548
C       -0.0058345653    0.4680776508   -0.2658656654
C       -0.5758507765    0.1563047018   -1.6517345211
C       -1.2355028862    2.6810177585    0.1985980733
C        0.1112230108    1.9747830454   -0.0083097051
O        0.4753125862   -1.2409280335    0.9597623348
H       -0.8475212878    0.1789687874    1.7964192454
H       -1.5862172941   -0.9146812895    0.5841793814
H        1.6818353769   -0.9579704988   -0.7583274049
H        2.0344411441    0.1463154884    0.6094330013
H       -1.5834254318    0.5679790279   -1.7734109760
H       -0.6371011888   -0.9251137283   -1.8138121053
H        0.0591385057    0.5806670177   -2.4384441153
H       -1.8732493498    2.6153089704   -0.6889148737
H       -1.0872337298    3.7434198520    0.4176305212
H       -1.7874067166    2.2449349253    1.0383512644
H        0.7263204165    2.1301505805    0.8874344931
H        0.6546149871    2.4430053942   -0.8392842524
19   
torsion grid (-45,)
C       -0.7245695467   -0.3688830467    0.7816863858
C        1.2333656806   -0.4205211689    0.1075895892
C        0.0229039810    0.4547272991   -0.2989395271
C       -0.4808402264    0.1133166996   -1.7057809992
C       -1.2017607198    2.6316795705    0.3363680684
C        0.1170777374    1.9754571099   -0.0966590119
O        0.3857981304   -1.3013209414    0.8909644032
H       -0.8889472662    0.1530083380    1.7331466558
H       -1.6504303042   -0.8670211140    0.4717466479
H        1.7490117231   -0.9600397062   -0.6957312151
H        1.9708921172    0.0911728091    0.7413209925
H       -1.4561924471    0.5745596645   -1.8989036692
H       -0.5897211513   -0.9689500786   -1.8335840936
H        0.2194194818    0.4762885623   -2.4671637157
H       -2.0084391025    2.4335834649   -0.3785480820
H       -1.0883894408    3.7182309488    0.4095070859
H       -1.5279976913    2.2682119856    1.3154031576
H        0.8725049609    2.1903078829    0.6703318369
H        0.4792886272    2.4420939024   -1.0206303146
19   
torsion grid (-30,)
C       -0.8124260046   -0.3500812734    0.7136821072
C        1.1848010707   -0.3882966874    0.1756438008
C       -0.0032677719    0.4655966761   -0.3304540537
C       -0.4158767043    0.0758065424   -1.7544122357
C       -1.1582694130    2.6446286522    0.4747566463
C        0.0702074758    2.0008459876   -0.1841909955
O        0.2934347482   -1.2755362176    0.8993880158
H       -1.0391834754    0.1758314853    1.6486795153
H       -1.7141694235   -0.8564952598    0.3503480241
H        1.7716575358   -0.9252812957   -0.5792646317
H        1.8607357477    0.1426171286    0.8605276620
H       -1.3812923858    0.5256497572   -2.0159354606
H       -0.5094795637   -1.0106665753   -1.8572840383
H        0.3252081078    0.4242392404   -2.4832653670
H       -2.0869172553    2.3504284594   -0.0287896273
H       -1.0915159651    3.7366888336    0.4294704166
H       -1.2473334217    2.3647737028    1.5281699065
H        0.9541881614    2.2685374791    0.4084964824
H        0.2264569141    2.4467583612   -1.1728965691
19   
torsion grid (-15,)
C       -0.8896945835   -0.3662463508    0.6398549629
C        1.1376275859   -0.3482953245    0.2419852168
C       -0.0395509770    0.4498969918   -0.3741478917
C       -0.3321319800    0.0081599436   -1.8112168829
C       -1.0630940492    2.6416893693    0.6163453720
C        0.0120132961    1.9945645634   -0.2673379009
O        0.2316272970   -1.2392157895    0.9404533626
H       -1.2121704981    0.1774787623    1.5345869769
H       -1.7386479152   -0.9226054813    0.2250056544
H        1.7905982447   -0.8896346087   -0.4535982129
H        1.7498442978    0.2294767348    0.9486156379
H       -1.3000024348    0.3993802346   -2.1472708868
H       -0.3602288036   -1.0839317802   -1.8923641536
H        0.4373502434    0.3809091549   -2.4975441079
H       -2.0706339025    2.3355233973    0.3117062899
H       -1.0117185381    3.7330660750    0.5410986596
H       -0.9396466211    2.3800385825    1.6717138930
H        0.9990094305    2.2971433140    0.1034917696
H       -0.0677153016    2.4200183431   -1.2740011708
19   
torsion grid (0,)
C        0.6616410598   -0.2061194299    0.6286239376
C        0.7763814594    0.0011154672   -1.4225940951
C       -0.3453309514    0.3626974192   -0.4128123502
C       -1.5704992725   -0.5392531658   -0.5707233552
C       -0.1115403067    2.7102902071    0.7308502127
C       -0.7501967150    1.8567197084   -0.3713273045
O        1.5257298009   -0.7229473990   -0.4154995046
H        1.1847492243    0.5361332800    1.2406081069
H        0.2827430876   -1.0078418533    1.2741621198
H        0.4947753584   -0.6407343346   -2.2666525979
H        1.3428834496    0.8672726541   -1.7924259297
H       -2.2364517011   -0.4451991574    0.2953209565
H       -1.2788286228   -1.5911695408   -0.6629296155
H       -2.1426435682   -0.2657108333   -1.4653153422
H       -0.3493287768    2.3201434272    1.7263715323
H       -0.4864902890    3.7380208503    0.6789646305
H        0.9792599913    2.7538937672    0.6406822233
H       -0.5325462373    2.3033322697   -1.3493648297
H       -1.8386351793    1.9227153230   -0.2549486669
19   
torsion grid (15,)
C        0.6006677588   -0.2353564617    0.7037024111
C        0.8209436416    0.0911313767   -1.3277047525
C       -0.3685432739    0.3499371464   -0.3639890613
C       -1.5621679655   -0.5625627538   -0.6437797416
C        0.0125181080    2.7343736777    0.6454023198
C       -0.8059691369    1.8278753634   -0.2808086251
O        1.5784730254   -0.5991928149   -0.3031039447
H        1.0180666391    0.4792026084    1.4204157491
H        0.2310596716   -1.1159502139    1.2435799377
H        0.6180389362   -0.5531232288   -2.1924704817
H        1.3404218822    0.9994599666   -1.6627452967
H       -2.2706513026   -0.5447176788    0.1927870264
H       -1.2420310475   -1.5991002570   -0.7955133848
H       -2.0982090821   -0.2383374104   -1.5439015348
H       -0.0949358171    2.4370339732    1.6932338776
H       -0.3282273812    3.7716413449    0.5602249619
H        1.0809106738    2.7173369472    0.4015112811
H       -0.7988274381    2.2348805926   -1.3000983487
H       -1.8529565118    1.8713043542    0.0457237523
19   
torsion grid (30,)
C        0.4905519220   -0.2929554382    0.7127376083
C        0.7916883443    0.0980817339   -1.3036279274
C       -0.4482455569    0.2779099096   -0.3864973641
C       -1.6289474762   -0.6235380855   -0.7409258795
C        0.0733900111    2.6961245758    0.4527493381
C       -0.9013866442    1.7434344833   -0.2508052931
O        1.6099936882   -0.3757207133   -0.2041261179
H        0.7163377470    0.3573809721    1.5639196954
H        0.2018385516   -1.2846520557    1.0848683400
H        0.6885106602   -0.6615852031   -2.0894337784
H        1.1995657820    1.0183486602   -1.7408317027
H       -2.3723572879   -0.6295898656    0.0648731020
H       -1.3054200489   -1.6563141843   -0.9094240531
H       -2.1285257470   -0.2740060862   -1.6524479597
H        0.1491814928    2.4791866923    1.5222315468
H       -0.2680427657    3.7316855275    0.3532718195
H        1.0826241221    2.6375315643    0.0309933400
H       -1.1126000421    2.1137425827   -1.2627745975
H       -1.8607863304    1.7711103269    0.2827511809
19   
torsion grid (45,)
C        0.4314135410   -0.3332418846    0.8178074621
C        0.8509795177    0.0739453123   -1.1742402940
C       -0.4383199395    0.2449382130   -0.3294414922
C       -1.6074329164   -0.6402396687   -0.7578303638
C        0.1505127992    2.7022716234    0.3414456372
C       -0.9035450607    1.6989915640   -0.1440772514
O        1.6229196740   -0.3206917458   -0.0105542401
H        0.5545941374    0.2859201583    1.7132610916
H        0.1630729010   -1.3543343998    1.1196231264
H        0.8049188288   -0.7320714916   -1.9185440698
H        1.2595235080    0.9756921383   -1.6448985689
H       -2.4032603273   -0.6316106350   -0.0037341203
H       -1.2894900444   -1.6786622938   -0.8997246375
H       -2.0401942188   -0.2887722152   -1.7019881715
H        0.5265435783    2.4522382151    1.3378636239
H       -0.2832116144    3.7061251647    0.3971792391
H        1.0118231999    2.7526186807   -0.3314164355
H       -1.3122001767    2.0444209355   -1.1034149200
H       -1.7465891288    1.7004593862    0.5599627969
19   
torsion grid (60,)
C        0.3465746441   -0.3667667814    0.8676648878
C        0.8794635798    0.0773431091   -1.0940697574
C       -0.4447864120    0.2633048826   -0.3071041501
C       -1.5955595893   -0.6052661710   -0.8159791243
C        0.1531311101    2.7497733091    0.2226900205
C       -0.9307378532    1.7007918276   -0.0564097337
O        1.5555456664   -0.4661671090    0.0699893437
H        0.4958850061    0.2727500992    1.7465028094
H       -0.0059219901   -1.3536141544    1.1940969096
H        0.8283482031   -0.6564766039   -1.9086960081
H        1.3737797059    0.9844484412   -1.4575406221
H       -2.4389322646   -0.5892237279   -0.1153069222
H       -1.2822063310   -1.6472202916   -0.9416332080
H       -1.9598948469   -0.2435504488   -1.7847252606
H        0.8175861632    2.4481645488    1.0390785507
H       -0.3051084929    3.7034588730    0.5044362872
H        0.7757149120    2.9348183733   -0.6575806353
H       -1.5221523147    2.0280239122   -0.9218988365
H       -1.6310303000    1.6664140514    0.7889506537
19   
torsion grid (75,)
C        0.3289674709   -0.4010702558    0.9007975074
C        0.9525368057    0.1096880439   -1.0134687010
C       -0.3928326675    0.3145027423   -0.2675988216
C       -1.5182492244   -0.5394084379   -0.8573294344
C        0.1584408992    2.8386551848    0.1049253925
C       -0.9028123127    1.7337872620    0.0431409797
O        1.4805371647   -0.7036573015    0.0684237073
H        0.6057340730    0.2512336175    1.7401771921
H       -0.1490401008   -1.3100396665    1.2859849721
H        0.8934559488   -0.4545000645   -1.9521482216
H        1.5620625353    1.0065738785   -1.1667238306
H       -2.3911495517   -0.5470059679   -0.1934910792
H       -1.1948420544   -1.5758444589   -1.0024716560
H       -1.8390049261   -0.1448728706   -1.8286325505
H        0.9730491433    2.5886351606    0.7941696351
H       -0.2871613454    3.7782566923    0.4480323351
H        0.6011051300    3.0247547295   -0.8784195407
H       -1.6500637364    2.0174498296   -0.7090052651
H       -1.4449340183    1.6863482720    0.9966707784
19   
torsion grid (90,)
C        0.2454262416   -0.5269074078    0.8871710163
C        0.9363912944    0.0641453721   -0.9748315487
C       -0.4266280343    0.2669479782   -0.2602104489
C       -1.5393568738   -0.5480884996   -0.9265245216
C        0.0629161492    2.8309131826   -0.0850113831
C       -0.9328793989    1.6806163640    0.1040001529
O        1.3849807968   -0.8619656593    0.0510078370
H        0.5514685239    0.0871562816    1.7456837094
H       -0.2811813237   -1.4207671865    1.2430877538
H        0.8944844528   -0.4130931590   -1.9612700729
H        1.5883051425    0.9428942459   -1.0224897335
H       -2.4306461887   -0.5830096533   -0.2885811422
H       -1.2171370514   -1.5778266592   -1.1158273820
H       -1.8294956833   -0.1004908836   -1.8844628506
H        0.9757484466    2.6881210677    0.5041865304
H       -0.3864037093    3.7792501644    0.2282843996
H        0.3565081653    2.9344719527   -1.1348132296
H       -1.8215989479    1.9049900597   -0.4983644786
H       -1.2798314259    1.6594191087    1.1447597324
19   
torsion grid (105,)
C        0.1687986182   -0.6424574010    0.9265153343
C        0.9548646703    0.0426258713   -0.8588546863
C       -0.4366677026    0.2397327765   -0.1947341209
C       -1.5285933852   -0.5047449075   -0.9684920973
C       -0.0176522794    2.8247318250   -0.2126755696
C       -0.9147183437    1.6556940709    0.2138241109
O        1.3211994644   -0.9747222555    0.1108452178
H        0.4665501812   -0.0852794250    1.8258940356
H       -0.3997257680   -1.5342505306    1.2177803501
H        0.9500095156   -0.3544335278   -1.8810476632
H        1.6349262684    0.8994103328   -0.8038483939
H       -2.4462264074   -0.5785324976   -0.3728291660
H       -1.2088275572   -1.5201263794   -1.2271098601
H       -1.7732531501    0.0224930246   -1.8983836258
H        0.9660097653    2.7864405383    0.2666981717
H       -0.4801500535    3.7784291690    0.0630693529
H        0.1391898716    2.8331595574   -1.2971511322
H       -1.9121409266    1.8251901507   -0.2078132446
H       -1.0470292196    1.6845875579    1.3023406447
19   
torsion grid (120,)
C        0.1215256912   -0.7330971662    0.9585041484
C        1.0016964982    0.0365029115   -0.7409830324
C       -0.4195710042    0.2250940275   -0.1354651296
C       -1.4843640417   -0.4397851292   -1.0108350404
C       -0.1081962096    2.8067543027   -0.3465934652
C       -0.8610176725    1.6406354485    0.3095448311
O        1.2940035971   -1.0539313939    0.1710992926
H        0.3966459466   -0.2301958646    1.8961902236
H       -0.4778434237   -1.6243708969    1.1818274350
H        1.0462868679   -0.2854109787   -1.7882808882
H        1.6949245320    0.8708218078   -0.5865024503
H       -2.4269970216   -0.5493338860   -0.4618028412
H       -1.1639145372   -1.4346634546   -1.3386294051
H       -1.6843592292    0.1643811626   -1.9040431556
H        0.9366630902    2.8519384393   -0.0260945840
H       -0.5743443479    3.7610176116   -0.0794144569
H       -0.1193145467    2.7282628854   -1.4401903814
H       -1.9319119609    1.7565342469    0.1077025078
H       -0.7535673491    1.7286058068    1.3976436444
19   
torsion grid (135,)
C        0.0639637235   -0.7882227355    0.9763460692
C        1.0472891703    0.0442471216   -0.6314402519
C       -0.4013021940    0.2354323827   -0.0947857557
C       -1.4406576376   -0.3456742309   -1.0544004832
C       -0.2249919941    2.7920552141   -0.4650780229
C       -0.7935326588    1.6467054781    0.3855080091
O        1.2652026992   -1.1007789558    0.2317424983
H        0.3024118063   -0.3380870011    1.9500505490
H       -0.5644567283   -1.6747554238    1.1259523147
H        1.1507892967   -0.2158354535   -1.6915379370
H        1.7437333385    0.8547725194   -0.3845518010
H       -2.4092510440   -0.4621376232   -0.5543121968
H       -1.1302164045   -1.3276988868   -1.4269965376
H       -1.5862483934    0.3132627946   -1.9186510816
H        0.8637619265    2.8546606231   -0.3843447763
H       -0.6341818493    3.7541278512   -0.1395054405
H       -0.4746964700    2.6711838612   -1.5258392015
H       -1.8867482254    1.7241737037    0.4201950563
H       -0.4482901461    1.7861222718    1.4176832731
19   
torsion grid (150,)
C       -0.0372479905   -0.7676799026    0.9975039974
C        1.0878354768    0.0966452308   -0.5066278080
C       -0.3842809872    0.3161564950   -0.0588799377
C       -1.3965111370   -0.1681613675   -1.0975802022
C       -0.3478017701    2.8575928006   -0.4810784494
C       -0.7170519400    1.7158967530    0.4765248787
O        1.2344607281   -1.0536849233    0.3647749295
H        0.0993261686   -0.3819976713    2.0169443157
H       -0.6842002015   -1.6530043613    1.0249499269
H        1.2488224801   -0.1648518826   -1.5593000249
H        1.7811125482    0.8979412601   -0.2193294718
H       -2.4001861053   -0.2332055324   -0.6612053929
H       -1.1266901161   -1.1603407977   -1.4747390738
H       -1.4457175474    0.5128075941   -1.9544449786
H        0.7267028977    2.8717682438   -0.6898723174
H       -0.6120066899    3.8278082653   -0.0479214211
H       -0.8719748011    2.7730741474   -1.4392123325
H       -1.7851608977    1.7664594893    0.7235806783
H       -0.1765174535    1.8705761804    1.4190442202
19   
torsion grid (165,)
C       -0.1080662861   -0.7675905710    1.0138669823
C        1.1399830742    0.0435981857   -0.4374400983
C       -0.3440435635    0.3143865592   -0.0722585710
C       -1.3375846858   -0.1075078453   -1.1544445525
C       -0.4996021014    2.8429830804   -0.5475523517
C       -0.6240977147    1.7150185661    0.4845518631
O        1.2526538349   -0.9994786305    0.5655780683
H       -0.1344395789   -0.4052965619    2.0498618149
H       -0.7212667622   -1.6734505058    0.9283585873
H        1.3226768898   -0.3450558727   -1.4469840349
H        1.8329728005    0.8704914192   -0.2347160508
H       -2.3664044921   -0.0724792616   -0.7764024547
H       -1.1365369063   -1.1305044350   -1.4898245570
H       -1.2792141472    0.5453452729   -2.0314773196
H        0.4827035596    2.8291004817   -1.0338784091
H       -0.6174031238    3.8212060325   -0.0701973529
H       -1.2599719015    2.7663345438   -1.3309157208
H       -1.6292674010    1.7277919608    0.9272349466
H        0.0760538619    1.9065042132    1.3075436488
19   
torsion grid (180,)
C       -0.1375988677   -0.7779281150    0.9722912609
C        1.2075844942   -0.0180934055   -0.4221501931
C       -0.2655835801    0.3384664058   -0.0946680256
C       -1.2461828779   -0.0136181828   -1.2140878468
C       -0.6355616768    2.8646067407   -0.5267418043
C       -0.5035777816    1.7328913435    0.4995509804
O        1.2158889687   -1.0971595124    0.5496724817
H       -0.1605827074   -0.4320843689    2.0141931315
H       -0.8122193323   -1.6351908890    0.8561671470
H        1.3986415550   -0.3889060173   -1.4367643150
H        1.9447662698    0.7559456692   -0.1713131537
H       -2.2841803143    0.0872445830   -0.8744789897
H       -1.0991891451   -1.0474817210   -1.5441203405
H       -1.1130380925    0.6341768709   -2.0863585105
H        0.2325451519    2.9019745288   -1.1960980226
H       -0.7065915843    3.8351571695   -0.0248826100
H       -1.5291037488    2.7477946495   -1.1467053577
H       -1.4211811699    1.6944165619    1.1031721312
H        0.3099541373    1.9594912531    1.1996721134
