
  -OEChem-05262117483D

 43 46  0     1  0  0  0  0  0999 V2000
    8.7742    0.6943   -3.7422 C   0  0  0  0  0  0  0  0  0  0  0  0
    7.6028    0.6041   -2.9896 C   0  0  0  0  0  0  0  0  0  0  0  0
    8.4277   -1.6038   -4.3772 C   0  0  0  0  0  0  0  0  0  0  0  0
    9.1893   -0.4332   -4.4480 C   0  0  0  0  0  0  0  0  0  0  0  0
    6.8980   -0.6036   -2.9751 C   0  0  0  0  0  0  0  0  0  0  0  0
    5.2724    1.6100    0.3341 C   0  0  0  0  0  0  0  0  0  0  0  0
    4.2640    1.2550   -1.6504 C   0  0  0  0  0  0  0  0  0  0  0  0
    1.9777    2.4601    0.0583 C   0  0  0  0  0  0  0  0  0  0  0  0
    5.5854    2.3187    1.6131 C   0  0  0  0  0  0  0  0  0  0  0  0
    4.3837    3.1584    2.0802 C   0  0  0  0  0  0  0  0  0  0  0  0
    3.8133    3.9917    0.9219 C   0  0  0  0  0  0  0  0  0  0  0  0
   -0.3931    2.1903   -0.3880 C   0  0  0  0  0  0  0  0  0  0  0  0
   -1.4135    2.8518   -1.3064 C   0  0  0  0  0  0  0  0  0  0  0  0
    1.0075    3.3861   -2.0674 C   0  0  0  0  0  0  0  0  0  0  0  0
    3.3309    3.1293   -0.2630 C   0  0  1  0  0  0  0  0  0  0  0  0
    5.6026   -0.7922   -2.2068 C   0  0  0  0  0  0  0  0  0  0  0  0
    7.3075   -1.6852   -3.6549 N   0  0  0  0  0  0  0  0  0  0  0  0
    5.8574    0.5469   -0.1445 N   0  0  0  0  0  0  0  0  0  0  0  0
    4.3203    2.0985   -0.5379 N   0  0  0  0  0  0  0  0  0  0  0  0
    5.2375    0.3266   -1.3722 N   0  0  0  0  0  0  0  0  0  0  0  0
    0.9121    2.7815   -0.7251 N   0  0  0  0  0  0  0  0  0  0  0  0
    3.5127    1.3508   -2.6233 O   0  0  0  0  0  0  0  0  0  0  0  0
    1.8753    1.7112    1.0333 O   0  0  0  0  0  0  0  0  0  0  0  0
   -0.5607    2.9770   -2.9221 S   0  0  0  0  0  0  0  0  0  0  0  0
   10.6506   -0.3974   -5.4140 Cl  0  0  0  0  0  0  0  0  0  0  0  0
    9.3511    1.6136   -3.7792 H   0  0  0  0  0  0  0  0  0  0  0  0
    7.2480    1.4555   -2.4196 H   0  0  0  0  0  0  0  0  0  0  0  0
    8.7369   -2.4953   -4.9193 H   0  0  0  0  0  0  0  0  0  0  0  0
    5.8843    1.5839    2.3644 H   0  0  0  0  0  0  0  0  0  0  0  0
    6.4506    2.9727    1.4424 H   0  0  0  0  0  0  0  0  0  0  0  0
    3.6035    2.5042    2.4732 H   0  0  0  0  0  0  0  0  0  0  0  0
    4.7018    3.8280    2.8854 H   0  0  0  0  0  0  0  0  0  0  0  0
    2.9770    4.6068    1.2672 H   0  0  0  0  0  0  0  0  0  0  0  0
    4.5839    4.6767    0.5473 H   0  0  0  0  0  0  0  0  0  0  0  0
   -0.6076    2.3709    0.6682 H   0  0  0  0  0  0  0  0  0  0  0  0
   -0.3608    1.1074   -0.5478 H   0  0  0  0  0  0  0  0  0  0  0  0
   -2.3113    2.2424   -1.4245 H   0  0  0  0  0  0  0  0  0  0  0  0
   -1.6980    3.8444   -0.9450 H   0  0  0  0  0  0  0  0  0  0  0  0
    1.1212    4.4729   -1.9942 H   0  0  0  0  0  0  0  0  0  0  0  0
    1.8297    2.9470   -2.6355 H   0  0  0  0  0  0  0  0  0  0  0  0
    3.2515    3.7542   -1.1533 H   0  0  0  0  0  0  0  0  0  0  0  0
    4.7841   -0.9420   -2.9161 H   0  0  0  0  0  0  0  0  0  0  0  0
    5.6800   -1.6898   -1.5879 H   0  0  0  0  0  0  0  0  0  0  0  0
  1  2  1  0  0  0  0
  1  4  2  0  0  0  0
  1 26  1  0  0  0  0
  2  5  2  0  0  0  0
  2 27  1  0  0  0  0
  3  4  1  0  0  0  0
  3 17  2  0  0  0  0
  3 28  1  0  0  0  0
  4 25  1  0  0  0  0
  5 16  1  0  0  0  0
  5 17  1  0  0  0  0
  6  9  1  0  0  0  0
  6 18  2  0  0  0  0
  6 19  1  0  0  0  0
  7 19  1  0  0  0  0
  7 20  1  0  0  0  0
  7 22  2  0  0  0  0
  8 15  1  0  0  0  0
  8 21  1  0  0  0  0
  8 23  2  0  0  0  0
  9 10  1  0  0  0  0
  9 29  1  0  0  0  0
  9 30  1  0  0  0  0
 10 11  1  0  0  0  0
 10 31  1  0  0  0  0
 10 32  1  0  0  0  0
 11 15  1  0  0  0  0
 11 33  1  0  0  0  0
 11 34  1  0  0  0  0
 12 13  1  0  0  0  0
 12 21  1  0  0  0  0
 12 35  1  0  0  0  0
 12 36  1  0  0  0  0
 13 24  1  0  0  0  0
 13 37  1  0  0  0  0
 13 38  1  0  0  0  0
 14 21  1  0  0  0  0
 14 24  1  0  0  0  0
 14 39  1  0  0  0  0
 14 40  1  0  0  0  0
 15 19  1  0  0  0  0
 15 41  1  0  0  0  0
 16 20  1  0  0  0  0
 16 42  1  0  0  0  0
 16 43  1  0  0  0  0
 18 20  1  0  0  0  0
M  END
$$$$
