
  -OEChem-05262117483D

 55 58  0     1  0  0  0  0  0999 V2000
   -0.1562    3.4533   -1.1236 C   0  0  0  0  0  0  0  0  0  0  0  0
    0.5784    2.4867   -0.3942 C   0  0  0  0  0  0  0  0  0  0  0  0
   -1.3750    3.1648   -1.7455 C   0  0  0  0  0  0  0  0  0  0  0  0
   -1.1202    0.8999   -0.8785 C   0  0  0  0  0  0  0  0  0  0  0  0
    0.1025    1.1817   -0.2600 C   0  0  0  0  0  0  0  0  0  0  0  0
   -1.8124   -0.3495   -0.9247 C   0  0  0  0  0  0  0  0  0  0  0  0
   -1.8577    1.8564   -1.6102 C   0  0  0  0  0  0  0  0  0  0  0  0
   -2.9478   -0.1406   -1.6714 C   0  0  0  0  0  0  0  0  0  0  0  0
   -1.2381   -1.5070   -0.1638 C   0  0  0  0  0  0  0  0  0  0  0  0
    2.3161    0.1099    0.3493 C   0  0  0  0  0  0  0  0  0  0  0  0
    2.3977   -2.4006    0.4417 C   0  0  0  0  0  0  0  0  0  0  0  0
    0.7825    0.0242    0.4593 C   0  0  2  0  0  0  0  0  0  0  0  0
    3.0381   -1.0972    0.9718 C   0  0  2  0  0  0  0  0  0  0  0  0
    0.2999   -1.3541   -0.1057 C   0  0  1  0  0  0  0  0  0  0  0  0
    0.2501   -4.5908    3.7165 C   0  0  0  0  0  0  0  0  0  0  0  0
   -5.5719   -1.6020   -3.7669 C   0  0  0  0  0  0  0  0  0  0  0  0
    3.9973    0.1597    4.8500 C   0  0  0  0  0  0  0  0  0  0  0  0
   -4.0709   -1.0540   -2.0231 C   0  0  0  0  0  0  0  0  0  0  0  0
    3.0982   -1.0339    2.5057 C   0  0  0  0  0  0  0  0  0  0  0  0
    1.0339   -4.1149    2.4876 C   0  0  0  0  0  0  0  0  0  0  0  0
    0.4034   -2.8605    1.8743 C   0  0  0  0  0  0  0  0  0  0  0  0
   -3.0011    1.2075   -2.0565 N   0  0  0  0  0  0  0  0  0  0  0  0
    0.9423   -2.5004    0.5588 N   0  0  2  0  0  0  0  0  0  0  0  0
   -4.4551   -0.8163   -3.3784 O   0  0  0  0  0  0  0  0  0  0  0  0
    4.2797    0.2634    3.0510 S   0  0  0  0  0  0  0  0  0  0  0  0
    0.2470    4.4595   -1.2065 H   0  0  0  0  0  0  0  0  0  0  0  0
    1.5236    2.7822    0.0519 H   0  0  0  0  0  0  0  0  0  0  0  0
   -1.9115    3.9279   -2.3037 H   0  0  0  0  0  0  0  0  0  0  0  0
   -1.6547   -1.5084    0.8503 H   0  0  0  0  0  0  0  0  0  0  0  0
   -1.4796   -2.4769   -0.6130 H   0  0  0  0  0  0  0  0  0  0  0  0
    2.5752    0.1661   -0.7156 H   0  0  0  0  0  0  0  0  0  0  0  0
    2.6788    1.0336    0.8081 H   0  0  0  0  0  0  0  0  0  0  0  0
    2.6315   -2.4619   -0.6299 H   0  0  0  0  0  0  0  0  0  0  0  0
    2.8632   -3.2731    0.9057 H   0  0  0  0  0  0  0  0  0  0  0  0
    0.4964    0.0691    1.5202 H   0  0  0  0  0  0  0  0  0  0  0  0
    4.0763   -1.0952    0.6118 H   0  0  0  0  0  0  0  0  0  0  0  0
    0.6460   -1.3874   -1.1488 H   0  0  0  0  0  0  0  0  0  0  0  0
    0.2040   -3.8097    4.4843 H   0  0  0  0  0  0  0  0  0  0  0  0
   -0.7796   -4.8580    3.4531 H   0  0  0  0  0  0  0  0  0  0  0  0
    0.7184   -5.4718    4.1674 H   0  0  0  0  0  0  0  0  0  0  0  0
   -5.7981   -1.3488   -4.8049 H   0  0  0  0  0  0  0  0  0  0  0  0
   -6.4520   -1.3871   -3.1420 H   0  0  0  0  0  0  0  0  0  0  0  0
   -5.3473   -2.6769   -3.7001 H   0  0  0  0  0  0  0  0  0  0  0  0
    4.6576    0.8883    5.3268 H   0  0  0  0  0  0  0  0  0  0  0  0
    4.2394   -0.8366    5.2321 H   0  0  0  0  0  0  0  0  0  0  0  0
    2.9614    0.4067    5.1011 H   0  0  0  0  0  0  0  0  0  0  0  0
   -3.7539   -2.0978   -1.8828 H   0  0  0  0  0  0  0  0  0  0  0  0
   -4.9416   -0.8800   -1.3674 H   0  0  0  0  0  0  0  0  0  0  0  0
    3.4325   -1.9935    2.9140 H   0  0  0  0  0  0  0  0  0  0  0  0
    2.1211   -0.8045    2.9385 H   0  0  0  0  0  0  0  0  0  0  0  0
    1.0601   -4.9042    1.7269 H   0  0  0  0  0  0  0  0  0  0  0  0
    2.0707   -3.9255    2.7838 H   0  0  0  0  0  0  0  0  0  0  0  0
   -0.6603   -3.0755    1.7411 H   0  0  0  0  0  0  0  0  0  0  0  0
    0.4557   -2.0415    2.6138 H   0  0  0  0  0  0  0  0  0  0  0  0
   -3.6025    1.5245   -2.8052 H   0  0  0  0  0  0  0  0  0  0  0  0
  1  2  1  0  0  0  0
  1  3  2  0  0  0  0
  1 26  1  0  0  0  0
  2  5  2  0  0  0  0
  2 27  1  0  0  0  0
  3  7  1  0  0  0  0
  3 28  1  0  0  0  0
  4  5  1  0  0  0  0
  4  6  1  0  0  0  0
  4  7  2  0  0  0  0
  5 12  1  0  0  0  0
  6  8  2  0  0  0  0
  6  9  1  0  0  0  0
  7 22  1  0  0  0  0
  8 18  1  0  0  0  0
  8 22  1  0  0  0  0
  9 14  1  0  0  0  0
  9 29  1  0  0  0  0
  9 30  1  0  0  0  0
 10 12  1  0  0  0  0
 10 13  1  0  0  0  0
 10 31  1  0  0  0  0
 10 32  1  0  0  0  0
 11 13  1  0  0  0  0
 11 23  1  0  0  0  0
 11 33  1  0  0  0  0
 11 34  1  0  0  0  0
 12 14  1  0  0  0  0
 12 35  1  0  0  0  0
 13 19  1  0  0  0  0
 13 36  1  0  0  0  0
 14 23  1  0  0  0  0
 14 37  1  0  0  0  0
 15 20  1  0  0  0  0
 15 38  1  0  0  0  0
 15 39  1  0  0  0  0
 15 40  1  0  0  0  0
 16 24  1  0  0  0  0
 16 41  1  0  0  0  0
 16 42  1  0  0  0  0
 16 43  1  0  0  0  0
 17 25  1  0  0  0  0
 17 44  1  0  0  0  0
 17 45  1  0  0  0  0
 17 46  1  0  0  0  0
 18 24  1  0  0  0  0
 18 47  1  0  0  0  0
 18 48  1  0  0  0  0
 19 25  1  0  0  0  0
 19 49  1  0  0  0  0
 19 50  1  0  0  0  0
 20 21  1  0  0  0  0
 20 51  1  0  0  0  0
 20 52  1  0  0  0  0
 21 23  1  0  0  0  0
 21 53  1  0  0  0  0
 21 54  1  0  0  0  0
 22 55  1  0  0  0  0
M  END
$$$$
