61
0 1 C22ClH34NO2S
C                     6.498947564174    -2.605051458876    -5.406217748895
C                     8.906886391234    -2.386002817687    -5.583233584943
C                     6.440380648837    -2.961914959314    -6.759021637014
C                     8.847763263023    -2.740363018872    -6.927630450592
C                     7.735161107781    -2.315625820615    -4.810971572824
C                     7.609388496186    -3.028148181321    -7.511658138589
C                     3.692732590184     3.302146509981     0.737650668645
C                     3.115008238865     3.510611871544     2.141390927227
C                     3.120281066428     2.042500015215     0.085415313799
C                     2.683321594430     1.053829929730     2.246202649589
C                     3.545540181584    -2.221039331286    -1.288416658477
C                     3.653158114818    -0.723406234154    -0.974464847150
C                     3.256298072563     2.253254877856     3.025404545653
C                     5.892607261966    -1.374561808194    -0.358286997718
C                     4.730731802649     1.990200738262     3.380725769694
C                     2.447262636473     2.438191210847     4.317905515554
C                     6.198797387723    -0.991893002244     1.092265478152
C                     7.885853256323    -0.120164349183    -1.319508677161
C                     8.140475047025    -2.550472428290    -0.703442431203
C                     2.905925814340    -0.373050322215     0.326519066275
C                     6.736647405409    -1.882504132253    -2.675734315085
C                     7.172376699145    -1.488000833623    -1.252752019516
N                     3.325073858773     0.874154692442     0.943362694723
O                     5.042995882639    -0.401805150371    -0.968533998310
O                     7.902944235574    -1.960471927699    -3.505331407955
S                     4.892665331470    -2.984756808944    -0.322796198763
Cl                    7.532067424083    -3.478317530487    -9.211373095550
H                     5.578643962202    -2.560020139864    -4.836419339753
H                     9.857901485850    -2.159518961517    -5.110300556204
H                     5.483488697331    -3.187173611489    -7.219613967444
H                     9.755272630066    -2.794261442896    -7.520814502449
H                     3.469878889678     4.168795453411     0.104626229873
H                     4.782908178194     3.210548083273     0.782584862471
H                     3.593926854535     4.367114154174     2.631602830169
H                     2.047467195313     3.756049066782     2.052739096815
H                     2.040796562023     2.190217573987    -0.128509516130
H                     3.623868944682     1.871514825538    -0.868846542301
H                     2.832014670223     0.137865226336     2.830845051001
H                     1.587589000111     1.188568602477     2.134323109399
H                     2.589700319042    -2.641492818855    -0.965710721472
H                     3.676550202912    -2.410782249675    -2.357156161410
H                     3.240400832431    -0.141285732574    -1.803790017019
H                     4.816527430817     1.129846728177     4.054885470848
H                     5.168436551955     2.857414303193     3.888661923547
H                     5.325426009847     1.771508836599     2.491697710354
H                     2.515410411045     1.551573606620     4.959509557359
H                     1.387483955838     2.618864587481     4.103935938400
H                     2.823002819368     3.293044709583     4.891617581760
H                     5.270037814388    -0.810218073071     1.629185625644
H                     6.785919794009    -0.071435642542     1.129243990043
H                     6.750067260095    -1.785635343948     1.602011730280
H                     8.687569801165    -0.163358476046    -2.060435153828
H                     7.190529091462     0.672818617932    -1.606815802086
H                     8.335563623636     0.144616442731    -0.359236167006
H                     8.988949071064    -2.660100319448    -1.382856682138
H                     7.654972006325    -3.527381984194    -0.611256840046
H                     8.532013535080    -2.264852812448     0.276419526069
H                     3.062719259701    -1.176740904432     1.053231393262
H                     1.823655186629    -0.375055967345     0.078529559390
H                     6.051370865834    -1.129907864021    -3.078707624149
H                     6.238055796124    -2.857278436944    -2.660419365680
