
  -OEChem-05262117483D

 61 63  0     1  0  0  0  0  0999 V2000
    9.1009   -6.7467    0.0091 C   0  0  0  0  0  0  0  0  0  0  0  0
   10.3091   -5.8679   -1.9007 C   0  0  0  0  0  0  0  0  0  0  0  0
   10.0333   -7.7868    0.1088 C   0  0  0  0  0  0  0  0  0  0  0  0
   11.2350   -6.9019   -1.8010 C   0  0  0  0  0  0  0  0  0  0  0  0
    9.2360   -5.7813   -0.9983 C   0  0  0  0  0  0  0  0  0  0  0  0
   11.0921   -7.8604   -0.7918 C   0  0  0  0  0  0  0  0  0  0  0  0
   -1.3500   -2.2055    1.5528 C   0  0  0  0  0  0  0  0  0  0  0  0
   -1.8504   -0.9280    0.8680 C   0  0  0  0  0  0  0  0  0  0  0  0
    0.1353   -2.0948    1.9011 C   0  0  0  0  0  0  0  0  0  0  0  0
    0.4972   -0.4928    0.1369 C   0  0  0  0  0  0  0  0  0  0  0  0
    2.8745   -3.6408   -0.7621 C   0  0  0  0  0  0  0  0  0  0  0  0
    3.1276   -2.1961   -0.3311 C   0  0  1  0  0  0  0  0  0  0  0  0
   -0.9705   -0.5167   -0.3323 C   0  0  0  0  0  0  0  0  0  0  0  0
    5.2643   -3.1661    0.2811 C   0  0  2  0  0  0  0  0  0  0  0  0
   -1.1305   -1.5042   -1.5020 C   0  0  0  0  0  0  0  0  0  0  0  0
   -1.3654    0.8921   -0.8005 C   0  0  0  0  0  0  0  0  0  0  0  0
    5.6650   -2.9703    1.7489 C   0  0  0  0  0  0  0  0  0  0  0  0
    5.9881   -3.5191   -2.1435 C   0  0  0  0  0  0  0  0  0  0  0  0
    7.3864   -2.0948   -0.6321 C   0  0  0  0  0  0  0  0  0  0  0  0
    2.3624   -1.8218    0.9477 C   0  0  0  0  0  0  0  0  0  0  0  0
    7.2873   -4.5839   -0.2796 C   0  0  0  0  0  0  0  0  0  0  0  0
    6.4805   -3.3436   -0.6953 C   0  0  0  0  0  0  0  0  0  0  0  0
    0.9226   -1.7741    0.7069 N   0  0  1  0  0  0  0  0  0  0  0  0
    4.5392   -2.0177   -0.1662 O   0  0  0  0  0  0  0  0  0  0  0  0
    8.3865   -4.7293   -1.1845 O   0  0  0  0  0  0  0  0  0  0  0  0
    4.0658   -4.6175    0.2131 S   0  0  0  0  0  0  0  0  0  0  0  0
   12.2617   -9.1688   -0.6630 Cl  0  0  0  0  0  0  0  0  0  0  0  0
    8.2820   -6.7092    0.7176 H   0  0  0  0  0  0  0  0  0  0  0  0
   10.4011   -5.1131   -2.6761 H   0  0  0  0  0  0  0  0  0  0  0  0
    9.9287   -8.5354    0.8879 H   0  0  0  0  0  0  0  0  0  0  0  0
   12.0630   -6.9661   -2.4999 H   0  0  0  0  0  0  0  0  0  0  0  0
   -1.9243   -2.3923    2.4675 H   0  0  0  0  0  0  0  0  0  0  0  0
   -1.4979   -3.0716    0.8989 H   0  0  0  0  0  0  0  0  0  0  0  0
   -2.8913   -1.0485    0.5437 H   0  0  0  0  0  0  0  0  0  0  0  0
   -1.8431   -0.1091    1.6007 H   0  0  0  0  0  0  0  0  0  0  0  0
    0.2735   -1.3260    2.6883 H   0  0  0  0  0  0  0  0  0  0  0  0
    0.4967   -3.0445    2.3088 H   0  0  0  0  0  0  0  0  0  0  0  0
    1.1418   -0.2494   -0.7143 H   0  0  0  0  0  0  0  0  0  0  0  0
    0.6264    0.3219    0.8777 H   0  0  0  0  0  0  0  0  0  0  0  0
    1.8560   -3.9426   -0.5117 H   0  0  0  0  0  0  0  0  0  0  0  0
    3.0468   -3.7792   -1.8315 H   0  0  0  0  0  0  0  0  0  0  0  0
    2.8447   -1.5152   -1.1397 H   0  0  0  0  0  0  0  0  0  0  0  0
   -0.5465   -1.1721   -2.3686 H   0  0  0  0  0  0  0  0  0  0  0  0
   -2.1792   -1.5719   -1.8133 H   0  0  0  0  0  0  0  0  0  0  0  0
   -0.7835   -2.5047   -1.2345 H   0  0  0  0  0  0  0  0  0  0  0  0
   -0.7450    1.2190   -1.6434 H   0  0  0  0  0  0  0  0  0  0  0  0
   -1.2536    1.6270    0.0050 H   0  0  0  0  0  0  0  0  0  0  0  0
   -2.4105    0.9131   -1.1296 H   0  0  0  0  0  0  0  0  0  0  0  0
    4.7751   -2.7611    2.3436 H   0  0  0  0  0  0  0  0  0  0  0  0
    6.3517   -2.1269    1.8521 H   0  0  0  0  0  0  0  0  0  0  0  0
    6.1410   -3.8629    2.1638 H   0  0  0  0  0  0  0  0  0  0  0  0
    6.8433   -3.6218   -2.8148 H   0  0  0  0  0  0  0  0  0  0  0  0
    5.3679   -4.4134   -2.2496 H   0  0  0  0  0  0  0  0  0  0  0  0
    5.4084   -2.6468   -2.4545 H   0  0  0  0  0  0  0  0  0  0  0  0
    8.1605   -2.1642   -1.4000 H   0  0  0  0  0  0  0  0  0  0  0  0
    7.8932   -1.9985    0.3326 H   0  0  0  0  0  0  0  0  0  0  0  0
    6.7999   -1.1901   -0.8085 H   0  0  0  0  0  0  0  0  0  0  0  0
    2.7630   -0.8678    1.3310 H   0  0  0  0  0  0  0  0  0  0  0  0
    2.5641   -2.5856    1.7037 H   0  0  0  0  0  0  0  0  0  0  0  0
    6.6549   -5.4789   -0.3213 H   0  0  0  0  0  0  0  0  0  0  0  0
    7.6803   -4.4738    0.7380 H   0  0  0  0  0  0  0  0  0  0  0  0
  1  3  1  0  0  0  0
  1  5  2  0  0  0  0
  1 28  1  0  0  0  0
  2  4  2  0  0  0  0
  2  5  1  0  0  0  0
  2 29  1  0  0  0  0
  3  6  2  0  0  0  0
  3 30  1  0  0  0  0
  4  6  1  0  0  0  0
  4 31  1  0  0  0  0
  5 25  1  0  0  0  0
  6 27  1  0  0  0  0
  7  8  1  0  0  0  0
  7  9  1  0  0  0  0
  7 32  1  0  0  0  0
  7 33  1  0  0  0  0
  8 13  1  0  0  0  0
  8 34  1  0  0  0  0
  8 35  1  0  0  0  0
  9 23  1  0  0  0  0
  9 36  1  0  0  0  0
  9 37  1  0  0  0  0
 10 13  1  0  0  0  0
 10 23  1  0  0  0  0
 10 38  1  0  0  0  0
 10 39  1  0  0  0  0
 11 12  1  0  0  0  0
 11 26  1  0  0  0  0
 11 40  1  0  0  0  0
 11 41  1  0  0  0  0
 12 20  1  0  0  0  0
 12 24  1  0  0  0  0
 12 42  1  0  0  0  0
 13 15  1  0  0  0  0
 13 16  1  0  0  0  0
 14 17  1  0  0  0  0
 14 22  1  0  0  0  0
 14 24  1  0  0  0  0
 14 26  1  0  0  0  0
 15 43  1  0  0  0  0
 15 44  1  0  0  0  0
 15 45  1  0  0  0  0
 16 46  1  0  0  0  0
 16 47  1  0  0  0  0
 16 48  1  0  0  0  0
 17 49  1  0  0  0  0
 17 50  1  0  0  0  0
 17 51  1  0  0  0  0
 18 22  1  0  0  0  0
 18 52  1  0  0  0  0
 18 53  1  0  0  0  0
 18 54  1  0  0  0  0
 19 22  1  0  0  0  0
 19 55  1  0  0  0  0
 19 56  1  0  0  0  0
 19 57  1  0  0  0  0
 20 23  1  0  0  0  0
 20 58  1  0  0  0  0
 20 59  1  0  0  0  0
 21 22  1  0  0  0  0
 21 25  1  0  0  0  0
 21 60  1  0  0  0  0
 21 61  1  0  0  0  0
M  END
$$$$
