55
0 1 C21H30N2OS
C                    -0.156150934268     3.453278309532    -1.123568437456
C                     0.578352865675     2.486749871684    -0.394246346052
C                    -1.375000353223     3.164801501885    -1.745520467523
C                    -1.120151508456     0.899889982517    -0.878508550861
C                     0.102538551693     1.181697680905    -0.260010513365
C                    -1.812363285802    -0.349540344022    -0.924672462565
C                    -1.857692367538     1.856426840239    -1.610176061498
C                    -2.947763337214    -0.140639406113    -1.671411421713
C                    -1.238077776711    -1.506991003424    -0.163758904442
C                     2.316111409498     0.109878673530     0.349341114094
C                     2.397746593519    -2.400621200546     0.441712705749
C                     0.782522038553     0.024157225423     0.459342800158
C                     3.038111032417    -1.097220005623     0.971766561969
C                     0.299851323621    -1.354144182867    -0.105687865193
C                     0.250123927289    -4.590838382942     3.716461388445
C                    -5.571862434536    -1.601993203786    -3.766929648748
C                     3.997303105586     0.159714429479     4.850031354559
C                    -4.070913047326    -1.054022391481    -2.023081444711
C                     3.098172090192    -1.033894384842     2.505731421188
C                     1.033853262481    -4.114928965231     2.487638063881
C                     0.403445679101    -2.860473010972     1.874261154717
N                    -3.001095605124     1.207537816861    -2.056456894810
N                     0.942336699488    -2.500388366518     0.558751787243
O                    -4.455123759249    -0.816319798524    -3.378411566625
S                     4.279740466646     0.263381372197     3.050954967669
H                     0.247023747892     4.459518099724    -1.206475424817
H                     1.523558679331     2.782206817788     0.051921074000
H                    -1.911452083632     3.927916717668    -2.303740886762
H                    -1.654664492318    -1.508424475695     0.850311353774
H                    -1.479645866314    -2.476855252698    -0.613036939265
H                     2.575184633605     0.166093464959    -0.715558880085
H                     2.678835764507     1.033590213781     0.808112656870
H                     2.631493560367    -2.461884607153    -0.629938764122
H                     2.863175524278    -3.273078557085     0.905719679134
H                     0.496364106610     0.069116152992     1.520217470298
H                     4.076322413193    -1.095220927582     0.611767395511
H                     0.645953068837    -1.387370473785    -1.148840813890
H                     0.203994189849    -3.809686124891     4.484332790788
H                    -0.779633313078    -4.857981818808     3.453095584641
H                     0.718385660076    -5.471844248063     4.167402203900
H                    -5.798059810040    -1.348755185031    -4.804916478466
H                    -6.452006947327    -1.387055766806    -3.142031345183
H                    -5.347281870039    -2.676866129887    -3.700064864323
H                     4.657589452476     0.888318670830     5.326765531995
H                     4.239424100706    -0.836601319473     5.232128268113
H                     2.961385432846     0.406673887632     5.101097270201
H                    -3.753889658630    -2.097753254610    -1.882843699977
H                    -4.941615826864    -0.879977329835    -1.367420148977
H                     3.432532086325    -1.993513773901     2.914015446903
H                     2.121143749880    -0.804541557381     2.938456771695
H                     1.060086762316    -4.904221905571     1.726856080380
H                     2.070714415853    -3.925499356793     2.783808272072
H                    -0.660287733334    -3.075452591625     1.741146442161
H                     0.455713417092    -2.041457499068     2.613822671687
H                    -3.602457556304     1.524510595048    -2.805178231166
