
  -OEChem-05262117483D

 56 59  0     1  0  0  0  0  0999 V2000
    0.9557    2.5126    1.9980 C   0  0  0  0  0  0  0  0  0  0  0  0
    0.9806    1.9179    0.7138 C   0  0  0  0  0  0  0  0  0  0  0  0
    0.4068    1.8742    3.1141 C   0  0  0  0  0  0  0  0  0  0  0  0
   -0.0627   -0.0088    1.6391 C   0  0  0  0  0  0  0  0  0  0  0  0
    0.4620    0.6386    0.5201 C   0  0  0  0  0  0  0  0  0  0  0  0
   -0.6179   -1.3182    1.7251 C   0  0  0  0  0  0  0  0  0  0  0  0
   -0.1150    0.5900    2.9175 C   0  0  0  0  0  0  0  0  0  0  0  0
   -1.0103   -1.4982    3.0347 C   0  0  0  0  0  0  0  0  0  0  0  0
   -0.5381   -2.1892    0.5064 C   0  0  0  0  0  0  0  0  0  0  0  0
   -0.0297    0.8730   -1.9566 C   0  0  0  0  0  0  0  0  0  0  0  0
   -0.2596   -1.2363   -3.2685 C   0  0  0  0  0  0  0  0  0  0  0  0
    0.3796   -0.0948   -0.8126 C   0  0  2  0  0  0  0  0  0  0  0  0
   -0.7988    0.1757   -3.0926 C   0  0  2  0  0  0  0  0  0  0  0  0
   -0.6293   -1.2692   -0.7316 C   0  0  1  0  0  0  0  0  0  0  0  0
   -1.1187   -4.6614   -3.6175 C   0  0  0  0  0  0  0  0  0  0  0  0
   -1.8845   -3.6604    5.8588 C   0  0  0  0  0  0  0  0  0  0  0  0
   -1.4193    1.2965   -7.0858 C   0  0  0  0  0  0  0  0  0  0  0  0
   -1.6786   -2.6419    3.7303 C   0  0  0  0  0  0  0  0  0  0  0  0
   -0.7083    0.9614   -4.4059 C   0  0  0  0  0  0  0  0  0  0  0  0
    0.2882   -4.1408   -3.2970 C   0  0  0  0  0  0  0  0  0  0  0  0
    0.3625   -3.3028   -2.0195 C   0  0  0  0  0  0  0  0  0  0  0  0
   -0.7294   -0.3355    3.7461 N   0  0  0  0  0  0  0  0  0  0  0  0
   -0.5558   -2.0948   -2.0485 N   0  3  2  0  0  0  0  0  0  0  0  0
   -1.2253   -2.6683    5.0746 O   0  0  0  0  0  0  0  0  0  0  0  0
   -1.8527    0.2536   -5.6526 S   0  0  0  0  0  0  0  0  0  0  0  0
    1.3720    3.5085    2.1178 H   0  0  0  0  0  0  0  0  0  0  0  0
    1.4060    2.4809   -0.1126 H   0  0  0  0  0  0  0  0  0  0  0  0
    0.3910    2.3651    4.0831 H   0  0  0  0  0  0  0  0  0  0  0  0
    0.4206   -2.7195    0.5126 H   0  0  0  0  0  0  0  0  0  0  0  0
   -1.3346   -2.9423    0.4688 H   0  0  0  0  0  0  0  0  0  0  0  0
   -0.6475    1.6754   -1.5461 H   0  0  0  0  0  0  0  0  0  0  0  0
    0.8717    1.3445   -2.3611 H   0  0  0  0  0  0  0  0  0  0  0  0
   -0.6935   -1.7364   -4.1331 H   0  0  0  0  0  0  0  0  0  0  0  0
    0.8260   -1.2192   -3.3891 H   0  0  0  0  0  0  0  0  0  0  0  0
    1.3673   -0.5212   -1.0384 H   0  0  0  0  0  0  0  0  0  0  0  0
   -1.8620    0.1115   -2.8277 H   0  0  0  0  0  0  0  0  0  0  0  0
   -1.6362   -0.8438   -0.7414 H   0  0  0  0  0  0  0  0  0  0  0  0
   -1.5507   -5.2010   -2.7672 H   0  0  0  0  0  0  0  0  0  0  0  0
   -1.8124   -3.8617   -3.9056 H   0  0  0  0  0  0  0  0  0  0  0  0
   -1.0843   -5.3542   -4.4616 H   0  0  0  0  0  0  0  0  0  0  0  0
   -1.4738   -3.5911    6.8670 H   0  0  0  0  0  0  0  0  0  0  0  0
   -1.6974   -4.6671    5.4605 H   0  0  0  0  0  0  0  0  0  0  0  0
   -2.9684   -3.4831    5.8934 H   0  0  0  0  0  0  0  0  0  0  0  0
   -2.0507    0.9727   -7.9156 H   0  0  0  0  0  0  0  0  0  0  0  0
   -0.3708    1.1655   -7.3644 H   0  0  0  0  0  0  0  0  0  0  0  0
   -1.6247    2.3487   -6.8753 H   0  0  0  0  0  0  0  0  0  0  0  0
   -2.7746   -2.5165    3.7082 H   0  0  0  0  0  0  0  0  0  0  0  0
   -1.4443   -3.5850    3.2129 H   0  0  0  0  0  0  0  0  0  0  0  0
    0.3177    0.9416   -4.7922 H   0  0  0  0  0  0  0  0  0  0  0  0
   -0.9773    2.0052   -4.2166 H   0  0  0  0  0  0  0  0  0  0  0  0
    0.7023   -3.5969   -4.1503 H   0  0  0  0  0  0  0  0  0  0  0  0
    0.9599   -4.9891   -3.1285 H   0  0  0  0  0  0  0  0  0  0  0  0
    0.0574   -3.9123   -1.1709 H   0  0  0  0  0  0  0  0  0  0  0  0
    1.3706   -2.9259   -1.8350 H   0  0  0  0  0  0  0  0  0  0  0  0
   -0.8034   -0.2930    4.7550 H   0  0  0  0  0  0  0  0  0  0  0  0
   -1.5000   -2.4677   -2.1818 H   0  0  0  0  0  0  0  0  0  0  0  0
  1  2  1  0  0  0  0
  1  3  2  0  0  0  0
  1 26  1  0  0  0  0
  2  5  2  0  0  0  0
  2 27  1  0  0  0  0
  3  7  1  0  0  0  0
  3 28  1  0  0  0  0
  4  5  1  0  0  0  0
  4  6  1  0  0  0  0
  4  7  2  0  0  0  0
  5 12  1  0  0  0  0
  6  8  2  0  0  0  0
  6  9  1  0  0  0  0
  7 22  1  0  0  0  0
  8 18  1  0  0  0  0
  8 22  1  0  0  0  0
  9 14  1  0  0  0  0
  9 29  1  0  0  0  0
  9 30  1  0  0  0  0
 10 12  1  0  0  0  0
 10 13  1  0  0  0  0
 10 31  1  0  0  0  0
 10 32  1  0  0  0  0
 11 13  1  0  0  0  0
 11 23  1  0  0  0  0
 11 33  1  0  0  0  0
 11 34  1  0  0  0  0
 12 14  1  0  0  0  0
 12 35  1  0  0  0  0
 13 19  1  0  0  0  0
 13 36  1  0  0  0  0
 14 23  1  0  0  0  0
 14 37  1  0  0  0  0
 15 20  1  0  0  0  0
 15 38  1  0  0  0  0
 15 39  1  0  0  0  0
 15 40  1  0  0  0  0
 16 24  1  0  0  0  0
 16 41  1  0  0  0  0
 16 42  1  0  0  0  0
 16 43  1  0  0  0  0
 17 25  1  0  0  0  0
 17 44  1  0  0  0  0
 17 45  1  0  0  0  0
 17 46  1  0  0  0  0
 18 24  1  0  0  0  0
 18 47  1  0  0  0  0
 18 48  1  0  0  0  0
 19 25  1  0  0  0  0
 19 49  1  0  0  0  0
 19 50  1  0  0  0  0
 20 21  1  0  0  0  0
 20 51  1  0  0  0  0
 20 52  1  0  0  0  0
 21 23  1  0  0  0  0
 21 53  1  0  0  0  0
 21 54  1  0  0  0  0
 22 55  1  0  0  0  0
 23 56  1  0  0  0  0
M  CHG  1  23   1
M  END
$$$$
