
  -OEChem-05262117483D

 55 58  0     1  0  0  0  0  0999 V2000
    0.4657    3.4985   -0.8576 C   0  0  0  0  0  0  0  0  0  0  0  0
    1.0907    2.3814   -0.2513 C   0  0  0  0  0  0  0  0  0  0  0  0
   -0.8051    3.4320   -1.4369 C   0  0  0  0  0  0  0  0  0  0  0  0
   -0.8355    1.0885   -0.7596 C   0  0  0  0  0  0  0  0  0  0  0  0
    0.4429    1.1470   -0.1938 C   0  0  0  0  0  0  0  0  0  0  0  0
   -1.7188   -0.0327   -0.8196 C   0  0  0  0  0  0  0  0  0  0  0  0
   -1.4570    2.1923   -1.3855 C   0  0  0  0  0  0  0  0  0  0  0  0
   -2.8462    0.3869   -1.4882 C   0  0  0  0  0  0  0  0  0  0  0  0
   -1.2880   -1.3078   -0.1560 C   0  0  0  0  0  0  0  0  0  0  0  0
    2.4986   -0.2840    0.1861 C   0  0  0  0  0  0  0  0  0  0  0  0
    2.1945   -2.7802    0.1412 C   0  0  0  0  0  0  0  0  0  0  0  0
    0.9805   -0.1450    0.4068 C   0  0  2  0  0  0  0  0  0  0  0  0
    3.0643   -1.6243    0.6859 C   0  0  2  0  0  0  0  0  0  0  0  0
    0.2555   -1.3953   -0.1944 C   0  0  1  0  0  0  0  0  0  0  0  0
    0.2116   -5.5300    1.1359 C   0  0  0  0  0  0  0  0  0  0  0  0
   -5.3791    0.4178    0.0280 C   0  0  0  0  0  0  0  0  0  0  0  0
    4.5043   -0.7595    4.5214 C   0  0  0  0  0  0  0  0  0  0  0  0
   -4.1121   -0.3239   -1.8439 C   0  0  0  0  0  0  0  0  0  0  0  0
    3.2413   -1.6626    2.2120 C   0  0  0  0  0  0  0  0  0  0  0  0
    0.6462   -4.4480    2.1298 C   0  0  0  0  0  0  0  0  0  0  0  0
    0.2625   -3.0273    1.6942 C   0  0  0  0  0  0  0  0  0  0  0  0
   -2.6787    1.7327   -1.8519 N   0  0  0  0  0  0  0  0  0  0  0  0
    0.7533   -2.6629    0.3618 N   0  0  2  0  0  0  0  0  0  0  0  0
   -5.2837    0.3637   -1.3916 O   0  0  0  0  0  0  0  0  0  0  0  0
    4.6897   -0.6471    2.7103 S   0  0  0  0  0  0  0  0  0  0  0  0
    1.0003    4.4448   -0.8802 H   0  0  0  0  0  0  0  0  0  0  0  0
    2.0862    2.5064    0.1648 H   0  0  0  0  0  0  0  0  0  0  0  0
   -1.2514    4.3053   -1.9058 H   0  0  0  0  0  0  0  0  0  0  0  0
   -1.6393   -1.2981    0.8826 H   0  0  0  0  0  0  0  0  0  0  0  0
   -1.7028   -2.2038   -0.6295 H   0  0  0  0  0  0  0  0  0  0  0  0
    2.6918   -0.1966   -0.8905 H   0  0  0  0  0  0  0  0  0  0  0  0
    3.0307    0.5415    0.6667 H   0  0  0  0  0  0  0  0  0  0  0  0
    2.3465   -2.8147   -0.9463 H   0  0  0  0  0  0  0  0  0  0  0  0
    2.5489   -3.7378    0.5302 H   0  0  0  0  0  0  0  0  0  0  0  0
    0.7747   -0.1282    1.4870 H   0  0  0  0  0  0  0  0  0  0  0  0
    4.0618   -1.7582    0.2450 H   0  0  0  0  0  0  0  0  0  0  0  0
    0.5283   -1.4152   -1.2597 H   0  0  0  0  0  0  0  0  0  0  0  0
   -0.8700   -5.4872    0.9629 H   0  0  0  0  0  0  0  0  0  0  0  0
    0.7002   -5.3990    0.1666 H   0  0  0  0  0  0  0  0  0  0  0  0
    0.4538   -6.5297    1.5122 H   0  0  0  0  0  0  0  0  0  0  0  0
   -6.3091    0.9407    0.2615 H   0  0  0  0  0  0  0  0  0  0  0  0
   -4.5334    0.9598    0.4719 H   0  0  0  0  0  0  0  0  0  0  0  0
   -5.4148   -0.5935    0.4602 H   0  0  0  0  0  0  0  0  0  0  0  0
    5.3256   -0.1945    4.9692 H   0  0  0  0  0  0  0  0  0  0  0  0
    4.5653   -1.7974    4.8620 H   0  0  0  0  0  0  0  0  0  0  0  0
    3.5565   -0.3214    4.8485 H   0  0  0  0  0  0  0  0  0  0  0  0
   -4.2356   -0.3959   -2.9299 H   0  0  0  0  0  0  0  0  0  0  0  0
   -4.0781   -1.3442   -1.4361 H   0  0  0  0  0  0  0  0  0  0  0  0
    3.4061   -2.6897    2.5548 H   0  0  0  0  0  0  0  0  0  0  0  0
    2.3618   -1.2708    2.7294 H   0  0  0  0  0  0  0  0  0  0  0  0
    1.7235   -4.5213    2.3166 H   0  0  0  0  0  0  0  0  0  0  0  0
    0.1669   -4.6240    3.1010 H   0  0  0  0  0  0  0  0  0  0  0  0
   -0.8294   -2.9929    1.6597 H   0  0  0  0  0  0  0  0  0  0  0  0
    0.5656   -2.3206    2.4859 H   0  0  0  0  0  0  0  0  0  0  0  0
   -3.4311    2.3043   -2.2112 H   0  0  0  0  0  0  0  0  0  0  0  0
  1  2  1  0  0  0  0
  1  3  2  0  0  0  0
  1 26  1  0  0  0  0
  2  5  2  0  0  0  0
  2 27  1  0  0  0  0
  3  7  1  0  0  0  0
  3 28  1  0  0  0  0
  4  5  1  0  0  0  0
  4  6  1  0  0  0  0
  4  7  2  0  0  0  0
  5 12  1  0  0  0  0
  6  8  2  0  0  0  0
  6  9  1  0  0  0  0
  7 22  1  0  0  0  0
  8 18  1  0  0  0  0
  8 22  1  0  0  0  0
  9 14  1  0  0  0  0
  9 29  1  0  0  0  0
  9 30  1  0  0  0  0
 10 12  1  0  0  0  0
 10 13  1  0  0  0  0
 10 31  1  0  0  0  0
 10 32  1  0  0  0  0
 11 13  1  0  0  0  0
 11 23  1  0  0  0  0
 11 33  1  0  0  0  0
 11 34  1  0  0  0  0
 12 14  1  0  0  0  0
 12 35  1  0  0  0  0
 13 19  1  0  0  0  0
 13 36  1  0  0  0  0
 14 23  1  0  0  0  0
 14 37  1  0  0  0  0
 15 20  1  0  0  0  0
 15 38  1  0  0  0  0
 15 39  1  0  0  0  0
 15 40  1  0  0  0  0
 16 24  1  0  0  0  0
 16 41  1  0  0  0  0
 16 42  1  0  0  0  0
 16 43  1  0  0  0  0
 17 25  1  0  0  0  0
 17 44  1  0  0  0  0
 17 45  1  0  0  0  0
 17 46  1  0  0  0  0
 18 24  1  0  0  0  0
 18 47  1  0  0  0  0
 18 48  1  0  0  0  0
 19 25  1  0  0  0  0
 19 49  1  0  0  0  0
 19 50  1  0  0  0  0
 20 21  1  0  0  0  0
 20 51  1  0  0  0  0
 20 52  1  0  0  0  0
 21 23  1  0  0  0  0
 21 53  1  0  0  0  0
 21 54  1  0  0  0  0
 22 55  1  0  0  0  0
M  END
$$$$
