
  -OEChem-05262117483D

 55 58  0     1  0  0  0  0  0999 V2000
    2.3742    2.5188    1.2365 C   0  0  0  0  0  0  0  0  0  0  0  0
    1.7535    2.0140    0.0670 C   0  0  0  0  0  0  0  0  0  0  0  0
    2.2863    1.8771    2.4756 C   0  0  0  0  0  0  0  0  0  0  0  0
    0.9626    0.1723    1.3369 C   0  0  0  0  0  0  0  0  0  0  0  0
    1.0286    0.8228    0.1014 C   0  0  0  0  0  0  0  0  0  0  0  0
    0.3051   -1.0535    1.6402 C   0  0  0  0  0  0  0  0  0  0  0  0
    1.5564    0.6806    2.5144 C   0  0  0  0  0  0  0  0  0  0  0  0
    0.4869   -1.2831    2.9858 C   0  0  0  0  0  0  0  0  0  0  0  0
   -0.3287   -1.8190    0.5187 C   0  0  0  0  0  0  0  0  0  0  0  0
   -0.4114    1.2688   -1.9381 C   0  0  0  0  0  0  0  0  0  0  0  0
   -1.6416   -0.6854   -2.8930 C   0  0  0  0  0  0  0  0  0  0  0  0
    0.2666    0.1880   -1.0519 C   0  0  2  0  0  0  0  0  0  0  0  0
   -1.7480    0.7908   -2.5361 C   0  0  2  0  0  0  0  0  0  0  0  0
   -0.8184   -0.8305   -0.5661 C   0  0  1  0  0  0  0  0  0  0  0  0
   -3.2707   -3.7933   -2.5329 C   0  0  0  0  0  0  0  0  0  0  0  0
   -1.8959   -1.1613    4.6855 C   0  0  0  0  0  0  0  0  0  0  0  0
   -4.8357    1.9656   -3.0941 C   0  0  0  0  0  0  0  0  0  0  0  0
   -0.0306   -2.3864    3.8575 C   0  0  0  0  0  0  0  0  0  0  0  0
   -2.1250    1.6587   -3.7414 C   0  0  0  0  0  0  0  0  0  0  0  0
   -1.8469   -3.5927   -3.0618 C   0  0  0  0  0  0  0  0  0  0  0  0
   -0.9376   -2.8382   -2.0796 C   0  0  0  0  0  0  0  0  0  0  0  0
    1.2416   -0.2212    3.5175 N   0  0  0  0  0  0  0  0  0  0  0  0
   -1.4715   -1.5285   -1.7007 N   0  0  2  0  0  0  0  0  0  0  0  0
   -1.4453   -2.3547    4.0599 O   0  0  0  0  0  0  0  0  0  0  0  0
   -3.7851    1.3643   -4.4608 S   0  0  0  0  0  0  0  0  0  0  0  0
    2.9337    3.4485    1.1693 H   0  0  0  0  0  0  0  0  0  0  0  0
    1.8462    2.5787   -0.8572 H   0  0  0  0  0  0  0  0  0  0  0  0
    2.7625    2.2988    3.3572 H   0  0  0  0  0  0  0  0  0  0  0  0
    0.4235   -2.4960    0.0982 H   0  0  0  0  0  0  0  0  0  0  0  0
   -1.1700   -2.4316    0.8567 H   0  0  0  0  0  0  0  0  0  0  0  0
   -0.5854    2.1731   -1.3461 H   0  0  0  0  0  0  0  0  0  0  0  0
    0.2687    1.5532   -2.7505 H   0  0  0  0  0  0  0  0  0  0  0  0
   -2.5376   -1.0001   -3.4353 H   0  0  0  0  0  0  0  0  0  0  0  0
   -0.7885   -0.8058   -3.5922 H   0  0  0  0  0  0  0  0  0  0  0  0
    0.9794   -0.3762   -1.6696 H   0  0  0  0  0  0  0  0  0  0  0  0
   -2.5306    0.9011   -1.7775 H   0  0  0  0  0  0  0  0  0  0  0  0
   -1.5947   -0.2308   -0.0723 H   0  0  0  0  0  0  0  0  0  0  0  0
   -3.2623   -4.3428   -1.5842 H   0  0  0  0  0  0  0  0  0  0  0  0
   -3.7608   -2.8332   -2.3493 H   0  0  0  0  0  0  0  0  0  0  0  0
   -3.8788   -4.3605   -3.2459 H   0  0  0  0  0  0  0  0  0  0  0  0
   -2.9725   -1.2702    4.8336 H   0  0  0  0  0  0  0  0  0  0  0  0
   -1.7035   -0.2785    4.0615 H   0  0  0  0  0  0  0  0  0  0  0  0
   -1.4127   -1.0169    5.6652 H   0  0  0  0  0  0  0  0  0  0  0  0
   -5.8640    1.9741   -3.4635 H   0  0  0  0  0  0  0  0  0  0  0  0
   -4.5565    2.9847   -2.8096 H   0  0  0  0  0  0  0  0  0  0  0  0
   -4.7834    1.3110   -2.2206 H   0  0  0  0  0  0  0  0  0  0  0  0
    0.1623   -3.3584    3.3961 H   0  0  0  0  0  0  0  0  0  0  0  0
    0.4872   -2.3686    4.8312 H   0  0  0  0  0  0  0  0  0  0  0  0
   -1.4267    1.4815   -4.5673 H   0  0  0  0  0  0  0  0  0  0  0  0
   -2.0491    2.7202   -3.4784 H   0  0  0  0  0  0  0  0  0  0  0  0
   -1.8768   -3.0827   -4.0306 H   0  0  0  0  0  0  0  0  0  0  0  0
   -1.3791   -4.5672   -3.2504 H   0  0  0  0  0  0  0  0  0  0  0  0
   -0.8506   -3.4593   -1.1869 H   0  0  0  0  0  0  0  0  0  0  0  0
    0.0755   -2.7598   -2.5239 H   0  0  0  0  0  0  0  0  0  0  0  0
    1.5204   -0.1493    4.4857 H   0  0  0  0  0  0  0  0  0  0  0  0
  1  2  1  0  0  0  0
  1  3  2  0  0  0  0
  1 26  1  0  0  0  0
  2  5  2  0  0  0  0
  2 27  1  0  0  0  0
  3  7  1  0  0  0  0
  3 28  1  0  0  0  0
  4  5  1  0  0  0  0
  4  6  1  0  0  0  0
  4  7  2  0  0  0  0
  5 12  1  0  0  0  0
  6  8  2  0  0  0  0
  6  9  1  0  0  0  0
  7 22  1  0  0  0  0
  8 18  1  0  0  0  0
  8 22  1  0  0  0  0
  9 14  1  0  0  0  0
  9 29  1  0  0  0  0
  9 30  1  0  0  0  0
 10 12  1  0  0  0  0
 10 13  1  0  0  0  0
 10 31  1  0  0  0  0
 10 32  1  0  0  0  0
 11 13  1  0  0  0  0
 11 23  1  0  0  0  0
 11 33  1  0  0  0  0
 11 34  1  0  0  0  0
 12 14  1  0  0  0  0
 12 35  1  0  0  0  0
 13 19  1  0  0  0  0
 13 36  1  0  0  0  0
 14 23  1  0  0  0  0
 14 37  1  0  0  0  0
 15 20  1  0  0  0  0
 15 38  1  0  0  0  0
 15 39  1  0  0  0  0
 15 40  1  0  0  0  0
 16 24  1  0  0  0  0
 16 41  1  0  0  0  0
 16 42  1  0  0  0  0
 16 43  1  0  0  0  0
 17 25  1  0  0  0  0
 17 44  1  0  0  0  0
 17 45  1  0  0  0  0
 17 46  1  0  0  0  0
 18 24  1  0  0  0  0
 18 47  1  0  0  0  0
 18 48  1  0  0  0  0
 19 25  1  0  0  0  0
 19 49  1  0  0  0  0
 19 50  1  0  0  0  0
 20 21  1  0  0  0  0
 20 51  1  0  0  0  0
 20 52  1  0  0  0  0
 21 23  1  0  0  0  0
 21 53  1  0  0  0  0
 21 54  1  0  0  0  0
 22 55  1  0  0  0  0
M  END
$$$$
