
  -OEChem-05262117483D

 40 42  0     1  0  0  0  0  0999 V2000
    2.3905   -2.1860   -1.7184 C   0  0  0  0  0  0  0  0  0  0  0  0
    0.3552   -3.2226   -0.9620 C   0  0  0  0  0  0  0  0  0  0  0  0
    2.5030   -3.1307   -2.7388 C   0  0  0  0  0  0  0  0  0  0  0  0
    0.4509   -4.1750   -1.9784 C   0  0  0  0  0  0  0  0  0  0  0  0
    1.3797   -4.9602    2.8299 C   0  0  0  0  0  0  0  0  0  0  0  0
    0.4428   -4.0177    2.4695 C   0  0  0  0  0  0  0  0  0  0  0  0
    2.4913   -3.2476    2.1537 C   0  0  0  0  0  0  0  0  0  0  0  0
    1.3146   -2.2123   -0.8208 C   0  0  0  0  0  0  0  0  0  0  0  0
    1.5256   -4.1192   -2.8649 C   0  0  0  0  0  0  0  0  0  0  0  0
   -1.0548   -0.1702   -0.7823 C   0  0  0  0  0  0  0  0  0  0  0  0
    0.0418    0.3149   -1.6940 C   0  0  0  0  0  0  0  0  0  0  0  0
    0.3361    0.0734   -0.2271 C   0  0  0  0  0  0  0  0  0  0  0  0
    2.3676    3.6075    0.7847 C   0  0  0  0  0  0  0  0  0  0  0  0
    0.5806   -1.6707    1.5613 C   0  0  0  0  0  0  0  0  0  0  0  0
    1.7984    2.5113   -0.1149 C   0  0  0  0  0  0  0  0  0  0  0  0
    1.2003   -1.1335    0.2473 C   0  0  1  0  0  0  0  0  0  0  0  0
    2.6532   -4.4708    2.6275 N   0  0  0  0  0  0  0  0  0  0  0  0
    1.1636   -2.9174    2.0349 N   0  0  0  0  0  0  0  0  0  0  0  0
    2.5359   -0.6850    0.5169 O   0  0  0  0  0  0  0  0  0  0  0  0
    0.5240    1.5528    0.8141 S   0  0  0  0  0  0  0  0  0  0  0  0
    1.6570   -5.3124   -4.1460 Cl  0  0  0  0  0  0  0  0  0  0  0  0
    3.1516   -1.4222   -1.6088 H   0  0  0  0  0  0  0  0  0  0  0  0
   -0.4764   -3.3014   -0.2703 H   0  0  0  0  0  0  0  0  0  0  0  0
    3.3425   -3.1036   -3.4264 H   0  0  0  0  0  0  0  0  0  0  0  0
   -0.2947   -4.9581   -2.0718 H   0  0  0  0  0  0  0  0  0  0  0  0
    1.2092   -5.9562    3.2184 H   0  0  0  0  0  0  0  0  0  0  0  0
   -0.6384   -4.0184    2.4898 H   0  0  0  0  0  0  0  0  0  0  0  0
    3.2755   -2.5668    1.8570 H   0  0  0  0  0  0  0  0  0  0  0  0
   -1.8356    0.5261   -0.4960 H   0  0  0  0  0  0  0  0  0  0  0  0
   -1.3776   -1.1997   -0.8988 H   0  0  0  0  0  0  0  0  0  0  0  0
    0.4557   -0.3880   -2.4082 H   0  0  0  0  0  0  0  0  0  0  0  0
    0.0014    1.3428   -2.0368 H   0  0  0  0  0  0  0  0  0  0  0  0
    1.5812    4.2798    1.1423 H   0  0  0  0  0  0  0  0  0  0  0  0
    2.8751    3.1851    1.6574 H   0  0  0  0  0  0  0  0  0  0  0  0
    3.0931    4.2076    0.2258 H   0  0  0  0  0  0  0  0  0  0  0  0
    0.6847   -0.8930    2.3250 H   0  0  0  0  0  0  0  0  0  0  0  0
   -0.4889   -1.8382    1.4261 H   0  0  0  0  0  0  0  0  0  0  0  0
    2.5774    1.8212   -0.4463 H   0  0  0  0  0  0  0  0  0  0  0  0
    1.3289    2.9473   -1.0005 H   0  0  0  0  0  0  0  0  0  0  0  0
    2.4424    0.0739    1.1234 H   0  0  0  0  0  0  0  0  0  0  0  0
  1  3  1  0  0  0  0
  1  8  2  0  0  0  0
  1 22  1  0  0  0  0
  2  4  2  0  0  0  0
  2  8  1  0  0  0  0
  2 23  1  0  0  0  0
  3  9  2  0  0  0  0
  3 24  1  0  0  0  0
  4  9  1  0  0  0  0
  4 25  1  0  0  0  0
  5  6  2  0  0  0  0
  5 17  1  0  0  0  0
  5 26  1  0  0  0  0
  6 18  1  0  0  0  0
  6 27  1  0  0  0  0
  7 17  2  0  0  0  0
  7 18  1  0  0  0  0
  7 28  1  0  0  0  0
  8 16  1  0  0  0  0
  9 21  1  0  0  0  0
 10 11  1  0  0  0  0
 10 12  1  0  0  0  0
 10 29  1  0  0  0  0
 10 30  1  0  0  0  0
 11 12  1  0  0  0  0
 11 31  1  0  0  0  0
 11 32  1  0  0  0  0
 12 16  1  0  0  0  0
 12 20  1  0  0  0  0
 13 15  1  0  0  0  0
 13 33  1  0  0  0  0
 13 34  1  0  0  0  0
 13 35  1  0  0  0  0
 14 16  1  0  0  0  0
 14 18  1  0  0  0  0
 14 36  1  0  0  0  0
 14 37  1  0  0  0  0
 15 20  1  0  0  0  0
 15 38  1  0  0  0  0
 15 39  1  0  0  0  0
 16 19  1  0  0  0  0
 19 40  1  0  0  0  0
M  END
$$$$
