24   
torsion grid (-165,)
C        4.5231720895    0.7440289717    1.4384226561
C        3.3510964000    0.3198132950    0.7456288100
C        5.7349839641    0.4870506233    0.8676292450
C        3.3765863513   -0.3404698845   -0.4608297531
C        4.6704681612   -0.5208254394   -1.1253220013
C        0.4537114883   -2.3700021476   -0.1501485483
C        1.6586113346   -2.9574536799   -2.2558306852
C        0.9945102816   -1.1477331127   -0.1859907909
C        2.2135634222   -1.7412955570   -2.2893504477
C        0.8162110453   -3.4638978026   -1.1160337029
C        2.0636955006   -0.7255576297   -1.1745725252
N        5.7795604083   -0.1373586831   -0.3444641487
O        4.8866509275   -0.9456589948   -2.2659086063
H        4.4606377084    1.2446379603    2.3974188431
H        2.3950455065    0.5149458558    1.2214791543
H        6.6868024419    0.7516382286    1.3166466897
H       -0.3053187620   -2.5943208306    0.5982314305
H        1.8032316885   -3.6285100765   -3.1010999463
H        0.6425058696   -0.4014011898    0.5225200126
H        2.8073042864   -1.4420247674   -3.1431489334
H        1.3374237119   -4.2759999121   -0.5848354528
H       -0.1018573488   -3.9263577973   -1.5062388415
H        1.7222475947    0.2087209950   -1.6509295157
H        6.6680304653   -0.2893315706   -0.8116284513
24   
torsion grid (-150,)
C        4.5578916334    0.5432293584    1.5138125673
C        3.3920518248    0.0848923645    0.8295102548
C        5.7446339712    0.5329420136    0.8422896616
C        3.4124200893   -0.3925551908   -0.4593455031
C        4.6593137130   -0.2776822467   -1.2214524973
C        0.3522183304   -2.2431770414   -0.2117715248
C        1.7087141808   -3.0656370552   -2.1443216201
C        0.9641318381   -1.0565385690   -0.2893820109
C        2.3255191394   -1.8817305573   -2.2291366092
C        0.7355507384   -3.4294728340   -1.0539372014
C        2.1279094943   -0.7752079672   -1.2098843936
N        5.7735369594    0.1117489067   -0.4566460330
O        4.8164849401   -0.4647736244   -2.4342165648
H        4.5109184582    0.8804581940    2.5426108251
H        2.4576072711    0.0733264633    1.3818269066
H        6.6895210453    0.8458718335    1.2743265402
H       -0.4862724298   -2.3674263497    0.4722739008
H        1.8944012170   -3.8177675200   -2.9099342917
H        0.5948377591   -0.2314575930    0.3169068468
H        3.0148816175   -1.6738242760   -3.0373165926
H        1.1541763801   -4.2243925316   -0.4166838488
H       -0.1699637209   -3.8709245488   -1.4948179607
H        1.8797467551    0.1302006803   -1.7904555182
H        6.6328051714    0.1652872129   -0.9946950963
24   
torsion grid (-135,)
C        4.5958480559    0.3756324568    1.5144129034
C        3.4291816470   -0.0938788480    0.8371078527
C        5.7359445738    0.5590702413    0.7886933245
C        3.4183591770   -0.3948280188   -0.5020414048
C        4.6110282478   -0.1082449105   -1.3011341161
C        0.2882009938   -2.1462074485   -0.2591502927
C        1.7316749138   -3.1495571613   -2.0441370350
C        0.9534921849   -0.9913346191   -0.3714168225
C        2.3965073422   -1.9956284739   -2.1668475046
C        0.6562778030   -3.3927886693   -1.0178203019
C        2.1555915753   -0.8025814857   -1.2607557403
N        5.7268136284    0.3038339678   -0.5545255285
O        4.7069128494   -0.1809395508   -2.5326744551
H        4.5860827999    0.5785216531    2.5789583184
H        2.5275834528   -0.2558352511    1.4208453812
H        6.6738195171    0.9041781433    1.2113330821
H       -0.5815704097   -2.2004940112    0.3944227071
H        1.9557830301   -3.9688706274   -2.7261593031
H        0.6063488966   -0.1197863573    0.1819139996
H        3.1576396630   -1.8682389020   -2.9280019915
H        0.9732924199   -4.1791322585   -0.3147479844
H       -0.2403722826   -3.8002951863   -1.5074126642
H        1.9529123661    0.0526820550   -1.9274301170
H        6.5502297711    0.4903612109   -1.1182938711
24   
torsion grid (-120,)
C        4.6263662354    0.1967433900    1.5125364696
C        3.4569989265   -0.2575412545    0.8289920119
C        5.7208063751    0.5343576959    0.7712042701
C        3.4056940356   -0.3810347976   -0.5357293719
C        4.5596150489    0.0182628556   -1.3392956557
C        0.2470097317   -2.0737510476   -0.2778372288
C        1.7549596589   -3.2196355282   -1.9218438945
C        0.9392739266   -0.9401768236   -0.4355938758
C        2.4437729246   -2.0859836433   -2.0906382573
C        0.6087696018   -3.3680010963   -0.9558995308
C        2.1649796340   -0.8198832398   -1.3033431151
N        5.6714556851    0.4374073946   -0.5924154435
O        4.6190652433    0.0215037067   -2.5753358823
H        4.6544358216    0.2733496376    2.5932590197
H        2.5856171128   -0.5372498500    1.4152520037
H        6.6537447373    0.8870961008    1.1984335984
H       -0.6381711554   -2.0762590782    0.3571264024
H        2.0137290582   -4.0944037547   -2.5171769183
H        0.6076016317   -0.0338702615    0.0699782898
H        3.2545679644   -2.0270398632   -2.8099080367
H        0.8483024330   -4.1314809687   -0.1991733218
H       -0.2722558618   -3.7639457776   -1.4825781728
H        1.9919483913   -0.0207497323   -2.0416335034
H        6.4710227456    0.7079329099   -1.1563691308
24   
torsion grid (-105,)
C        4.6569914561    0.0375555753    1.4904141375
C        3.4912970099   -0.3994777331    0.7900959278
C        5.7031348323    0.5291729462    0.7646972575
C        3.3962991682   -0.3424004065   -0.5761661536
C        4.5114750016    0.1781730802   -1.3621268550
C        0.2181112205   -1.9866662806   -0.3222995671
C        1.7818584863   -3.2519252653   -1.8205965880
C        0.9304526692   -0.8724459076   -0.5239886407
C        2.4893962395   -2.1371350517   -2.0321883451
C        0.5785653862   -3.3213818246   -0.9177034972
C        2.1814692621   -0.8123551443   -1.3626766555
N        5.6143000197    0.5923900661   -0.5991677770
O        4.5457007252    0.2743637656   -2.5952618375
H        4.7204662727   -0.0151742874    2.5710861508
H        2.6535786129   -0.7982880200    1.3571392084
H        6.6279481421    0.8855094855    1.2064016458
H       -0.6813224544   -1.9435664624    0.2907771000
H        2.0694715659   -4.1706452667   -2.3301166673
H        0.6069907326    0.0631260862   -0.0690224395
H        3.3420969084   -2.1395861911   -2.7060105985
H        0.7517090534   -4.0538062157   -0.1138065596
H       -0.2821843880   -3.7188756268   -1.4762313500
H        2.0413241910   -0.0680720387   -2.1601121907
H        6.3879962531    0.9535989532   -1.1482051841
24   
torsion grid (-90,)
C        4.7193223904   -0.0655140021    1.4557096913
C        3.5767123832   -0.5152051717    0.7276264352
C        5.6930004091    0.6113885416    0.7790257400
C        3.4292477168   -0.2841083545   -0.6155928139
C        4.4752640716    0.4159390724   -1.3541726903
C        0.2285961607   -1.8818824207   -0.3889573942
C        1.8352493067   -3.2584115605   -1.7356730659
C        0.9667702781   -0.7915248066   -0.6258340946
C        2.5689182549   -2.1671431095   -1.9793166510
C        0.5807182577   -3.2522871056   -0.9029455042
C        2.2461860300   -0.7943481016   -1.4254641706
N        5.5561983045    0.8382204524   -0.5629506984
O        4.4758730156    0.6475717571   -2.5694953525
H        4.8223766538   -0.2503162475    2.5186514122
H        2.7935966596   -1.0585934744    1.2518551644
H        6.5956390189    0.9931456579    1.2447914343
H       -0.6866761549   -1.7917406496    0.1947652737
H        2.1405910575   -4.2130454547   -2.1619162277
H        0.6513524411    0.1711833257   -0.2256042161
H        3.4612528090   -2.2315057199   -2.5982046559
H        0.6855021852   -3.9521082629   -0.0593242908
H       -0.2582649695   -3.6511562184   -1.4930385276
H        2.1446597046   -0.1037135040   -2.2733004263
H        6.2811990835    1.3288687370   -1.0769120378
24   
torsion grid (-75,)
C        4.7941105083   -0.2280478174    1.4042714463
C        3.6858069409   -0.7068922521    0.6444676316
C        5.6664660119    0.6331172618    0.8018342474
C        3.4724191883   -0.3271107287   -0.6556748647
C        4.4060794433    0.5782007093   -1.3166869639
C        0.2125184629   -1.7858693555   -0.4411054355
C        1.8065886425   -3.3274370251   -1.6133023988
C        1.0040492933   -0.7473526393   -0.7328582032
C        2.5952744168   -2.2879282678   -1.9078114616
C        0.5189472048   -3.2043633975   -0.8424644346
C        2.3106561375   -0.8635207157   -1.4819353939
N        5.4632439931    1.0098978173   -0.4966274743
O        4.3393568218    0.9721031448   -2.4875795871
H        4.9504210061   -0.5319182257    2.4327472116
H        2.9804950455   -1.3941168960    1.1074469578
H        6.5369924354    1.0515128392    1.2964708659
H       -0.7142205822   -1.6148208501    0.1051306008
H        2.0892359223   -4.3243511849   -1.9488159926
H        0.7206668683    0.2548463142   -0.4149358662
H        3.5111432907   -2.4427636624   -2.4751518025
H        0.5532056616   -3.8470977431    0.0508376496
H       -0.3117723930   -3.6058965600   -1.4424416545
H        2.2694872226   -0.2340917005   -2.3796984712
H        6.1107048341    1.6441223143   -0.9538515356
24   
torsion grid (-60,)
C        4.9041314568   -0.3629725394    1.3230878534
C        3.8412326971   -0.8899005813    0.5314144404
C        5.6337561938    0.6738635885    0.8145656772
C        3.5342896491   -0.3929977984   -0.7092196492
C        4.3025848005    0.7175933590   -1.2607063183
C        0.2074451738   -1.6759765856   -0.5245766390
C        1.7568517307   -3.3897393654   -1.5022119138
C        1.0641270148   -0.7072247910   -0.8674177849
C        2.6131242165   -2.4200457874   -1.8436744021
C        0.4505667534   -3.1369166801   -0.7969619042
C        2.3921496923   -0.9543345584   -1.5472761039
N        5.3341968664    1.1749718360   -0.4214388600
O        4.1228953083    1.2602852867   -2.3578120034
H        5.1363706897   -0.7652061727    2.3022666290
H        3.2490226566   -1.7162917811    0.9194858583
H        6.4607096477    1.1416281397    1.3388793012
H       -0.7268963999   -1.4132732059   -0.0302539094
H        1.9942460897   -4.4237897403   -1.7487288698
H        0.8258219975    0.3316154441   -0.6458011814
H        3.5401441729   -2.6709526015   -2.3564737731
H        0.4181921206   -3.7044041398    0.1460588087
H       -0.3780584952   -3.5448193264   -1.3954760006
H        2.4154925855   -0.3934053438   -2.4898987140
H        5.8681521025    1.9488454779   -0.8042709556
24   
torsion grid (-45,)
C        5.0348552402   -0.4688372748    1.2502240706
C        4.0160206461   -1.0437986221    0.4333360633
C        5.5967779364    0.7092418009    0.8483864077
C        3.5945204642   -0.4575313184   -0.7322301026
C        4.1701494882    0.8134538218   -1.1589431951
C        0.2104510192   -1.5587630651   -0.6290799160
C        1.7037986066   -3.4240971924   -1.3963930737
C        1.1321416011   -0.6650394700   -1.0045199441
C        2.6277925934   -2.5301068105   -1.7670444224
C        0.3885999276   -3.0479346610   -0.7666787407
C        2.4775445990   -1.0390140210   -1.5882595645
N        5.1759501158    1.3041137301   -0.3087285491
O        3.8497391358    1.4589288937   -2.1645508283
H        5.3626849283   -0.9447077667    2.1670975963
H        3.5569077461   -1.9819133785    0.7383698402
H        6.3778731446    1.2223563227    1.3998447587
H       -0.7314622737   -1.2104275779   -0.2074909130
H        1.8880793902   -4.4847695049   -1.5623525397
H        0.9418591819    0.3999994283   -0.8876425304
H        3.5579306312   -2.8688261637   -2.2208445482
H        0.2951925890   -3.5296639857    0.2191080327
H       -0.4379017195   -3.4668694682   -1.3603299121
H        2.5721339606   -0.5493895323   -2.5661889764
H        5.5786551485    2.1867258941   -0.6076636741
24   
torsion grid (-30,)
C        5.1852660887   -0.5422556260    1.1641672519
C        4.1921891599   -1.1545411449    0.3409187369
C        5.5805603425    0.7297060784    0.8649024960
C        3.6336373123   -0.5086896465   -0.7314844395
C        4.0328859003    0.8592750689   -1.0472082985
C        0.2130128462   -1.4747559821   -0.7311091855
C        1.6572223652   -3.4466584400   -1.2970001845
C        1.1878214443   -0.6459165954   -1.1199268851
C        2.6364003449   -2.6183865711   -1.6778849648
C        0.3351856852   -2.9756592021   -0.7520013974
C        2.5447027389   -1.1151393292   -1.6039318038
N        5.0236651665    1.3822264403   -0.2007649359
O        3.5772994253    1.5545017725   -1.9636728105
H        5.6218698404   -1.0643003179    2.0076654731
H        3.8649155744   -2.1663981582    0.5691711316
H        6.3285945085    1.2763580027    1.4297124485
H       -0.7334123219   -1.0612453015   -0.3852569719
H        1.7997230755   -4.5225972223   -1.3902191214
H        1.0400897900    0.4311790622   -1.0945945486
H        3.5678553966   -3.0266609476   -2.0681606793
H        0.1847421841   -3.3793616919    0.2614230786
H       -0.4833727129   -3.4067176069   -1.3478767105
H        2.7017456739   -0.6959056258   -2.6074683132
H        5.3016765911    2.3329325089   -0.4230257815
24   
torsion grid (-15,)
C        5.2602187418   -0.5978421375    1.0924259639
C        4.2836460032   -1.2362607665    0.2680447246
C        5.4996095776    0.7323212303    0.9039876492
C        3.5798377334   -0.5554644394   -0.6912766601
C        3.8387684642    0.8654561727   -0.9099892104
C        0.1585126344   -1.4733182781   -0.8045215048
C        1.5928075202   -3.4914692457   -1.1883265885
C        1.1564698746   -0.6815967833   -1.2108322746
C        2.5957908372   -2.7001447223   -1.5844542795
C        0.2653537192   -2.9718277281   -0.7066212783
C        2.5327216698   -1.1936559393   -1.5939237095
N        4.8095787050    1.4162293262   -0.0593815031
O        3.2876473786    1.5803854955   -1.7563812638
H        5.8038443233   -1.1469997255    1.8523903925
H        4.0814654508   -2.2941588875    0.4156737570
H        6.2209966858    1.3026479679    1.4798958681
H       -0.7984206688   -1.0283445629   -0.5348867108
H        1.7197868957   -4.5728563093   -1.2224937643
H        1.0196188626    0.3942884856   -1.2749475079
H        3.5259809526   -3.1482845553   -1.9327333516
H        0.0921984285   -3.2959411230    0.3314967060
H       -0.5447608179   -3.4413684506   -1.2844846609
H        2.7505317060   -0.8284323568   -2.6081198300
H        4.9850035291    2.4041510159   -0.2135036701
24   
torsion grid (0,)
C        5.3958675824   -0.6236699442    0.9920747564
C        4.4241643171   -1.2657401162    0.1645445430
C        5.5160504491    0.7331135601    0.9183119773
C        3.5950197878   -0.5665304897   -0.6750351179
C        3.7657814472    0.8800568266   -0.8094732969
C        0.1696368239   -1.4043802415   -0.9228898457
C        1.5670407794   -3.4688190297   -1.1086993501
C        1.1980580485   -0.6639887221   -1.3492968380
C        2.5996008899   -2.7281514966   -1.5253668873
C        0.2461643081   -2.8883176079   -0.6851717397
C        2.5872063147   -1.2217316691   -1.6164855923
N        4.7182342141    1.4366679407    0.0584036510
O        3.1668950213    1.6147797218   -1.6049327688
H        6.0256262343   -1.1918055495    1.6667774947
H        4.3190995450   -2.3451048648    0.2302826042
H        6.2203261288    1.3102216736    1.5084580347
H       -0.7909556943   -0.9240681693   -0.7410329722
H        1.6657049557   -4.5533439013   -1.0830184251
H        1.0812250096    0.4027036902   -1.5108929710
H        3.5164898442   -3.2273670782   -1.8381563897
H        0.0629622904   -3.1120475268    0.3775659243
H       -0.5682700361   -3.3960825355   -1.2227005284
H        2.8795736377   -0.9143767944   -2.6315207122
H        4.8266220290    2.4414671609   -0.0375248628
24   
torsion grid (15,)
C        5.5099229111   -0.6679834459    0.9427441348
C        4.5583045429   -1.3020587466    0.0871084772
C        5.4981712488    0.6931212762    1.0272557706
C        3.6118834760   -0.6046465122   -0.6225081248
C        3.6771515458    0.8587441105   -0.6268122030
C        0.2015893167   -1.3754874102   -1.0231176506
C        1.5640923849   -3.4629446673   -1.0047211290
C        1.2523436471   -0.6866640720   -1.4808045578
C        2.6167524924   -2.7729989017   -1.4558340403
C        0.2574100385   -2.8251242364   -0.6249737519
C        2.6520259348   -1.2694225752   -1.6162987523
N        4.5978973665    1.4039212131    0.2841699199
O        3.0293208590    1.6259754543   -1.3494401327
H        6.2225316312   -1.2467691940    1.5186428187
H        4.5605115312   -2.3868606432    0.0383372131
H        6.1718956520    1.2671355729    1.6549600035
H       -0.7631427014   -0.8767172323   -0.9405815380
H        1.6345503711   -4.5467200314   -0.9221500801
H        1.1457596131    0.3568263728   -1.7533611609
H        3.5142679797   -3.3184830814   -1.7459927389
H        0.0876393403   -2.9305816983    0.4582036494
H       -0.5707425166   -3.3753109194   -1.0947075938
H        3.0282381637   -1.0153613299   -2.6183753499
H        4.6208913569    2.4188784814    0.2825766978
24   
torsion grid (30,)
C        5.6370130617   -0.6553368033    0.7794655173
C        4.6967866479   -1.2843754731   -0.0903226869
C        5.4819783144    0.6739365658    1.0425272590
C        3.6294330768   -0.6258253009   -0.6537488000
C        3.5489639632    0.8281104173   -0.4870273731
C        0.2124722179   -1.3178876806   -1.1727342168
C        1.5135752960   -3.4194433137   -0.8809109660
C        1.2957943756   -0.7083032601   -1.6656139930
C        2.5955140747   -2.8101159695   -1.3762442964
C        0.2281676348   -2.7010059897   -0.5806657756
C        2.6875243517   -1.3218918508   -1.6542238261
N        4.4592392262    1.3559972507    0.4489250803
O        2.8011338384    1.6139132406   -1.0802318001
H        6.4470933411   -1.2149056125    1.2321676917
H        4.8160697044   -2.3479388781   -0.2725850457
H        6.1302533191    1.2422545605    1.7015425860
H       -0.7469030300   -0.8040537086   -1.2095860622
H        1.5430508554   -4.4934205721   -0.7024864118
H        1.2130785560    0.2889557894   -2.0785686931
H        3.4708713491   -3.4141084955   -1.6099034345
H        0.0677887628   -2.6545238856    0.5081677237
H       -0.6192050048   -3.2849296268   -0.9668922550
H        3.1311028291   -1.1682438214   -2.6493165113
H        4.3732787622    2.3602653870    0.5707073201
24   
torsion grid (45,)
C        5.8813782328   -0.5974758433    0.5065291978
C        4.8965399513   -1.2188543674   -0.3156923471
C        5.6289283627    0.6612163817    0.9680467162
C        3.7109883707   -0.6192860111   -0.6724811977
C        3.4685098676    0.7591172688   -0.2384128252
C        0.1933461543   -1.2526113040   -1.3835884218
C        1.3717508186   -3.3428356505   -0.6998280068
C        1.3576098138   -0.7029449494   -1.7434859883
C        2.5358128157   -2.8071294211   -1.0808987374
C        0.0650305285   -2.6015899803   -0.7314829659
C        2.7018346361   -1.3759409206   -1.5621480965
N        4.4667940787    1.2793747337    0.6115997774
O        2.5220144629    1.4961345087   -0.5348006199
H        6.8000124997   -1.1079484940    0.7703882115
H        5.1066217286   -2.2243151813   -0.6695060875
H        6.3021333564    1.2189054039    1.6110167777
H       -0.7281982265   -0.7036767791   -1.5705579186
H        1.3512897970   -4.3769192022   -0.3578161804
H        1.3644320816    0.2758297817   -2.2069612943
H        3.4272493263   -3.4290565530   -1.0501253675
H       -0.3293378166   -2.4958749123    0.2914162029
H       -0.6865562368   -3.2050427960   -1.2616787359
H        3.1721784859   -1.4147311157   -2.5585346716
H        4.2756095537    2.2288488842    0.9159636219
24   
torsion grid (60,)
C        6.0137436422   -0.4749265464    0.2493768379
C        5.0033340413   -1.1250973410   -0.5172061667
C        5.6938973989    0.7047851056    0.8570365573
C        3.7354659783   -0.6209563858   -0.6836797925
C        3.3794721021    0.6351335953   -0.0226931456
C        0.1981118270   -1.2830578874   -1.5843000791
C        1.2645577696   -3.2993562721   -0.5510608820
C        1.4022022659   -0.7439394849   -1.7963615032
C        2.4733369936   -2.7826392347   -0.7937214290
C       -0.0228591969   -2.6161698052   -0.9221601795
C        2.7005721575   -1.4402329838   -1.4661023078
N        4.4381663444    1.2166351894    0.7077255457
O        2.2921325549    1.2195064162   -0.0433040482
H        7.0060025823   -0.8974647030    0.3539730034
H        5.2594328718   -2.0640995609   -1.0051700170
H        6.3853961830    1.2787873744    1.4653346837
H       -0.6894627777   -0.7285295682   -1.8842714246
H        1.1899777932   -4.2698846882   -0.0616834118
H        1.4782943482    0.2328366115   -2.2631452417
H        3.3613274036   -3.3363808475   -0.4959866511
H       -0.6461056273   -2.4898683078   -0.0235049504
H       -0.6109918409   -3.2731150191   -1.5813913451
H        3.1920507692   -1.6514964700   -2.4311995506
H        4.1810971426    2.0867903530    1.1631923621
24   
torsion grid (75,)
C        6.0474804384   -0.3766177598    0.1051901102
C        5.0552957969   -1.0584113946   -0.6593725699
C        5.6528902522    0.6957358984    0.8522564012
C        3.7347707536   -0.6816626415   -0.6855901535
C        3.2939474078    0.4362592635    0.1493362878
C        0.2372119498   -1.2842487060   -1.7236019517
C        1.1622204357   -3.2443558481   -0.4622281320
C        1.4724469298   -0.8087486246   -1.9009253197
C        2.4033623020   -2.7945331706   -0.6731679266
C       -0.0722840690   -2.5502091788   -0.9707205896
C        2.7186913904   -1.5291349861   -1.4481940800
N        4.3413881064    1.0745431539    0.8478707627
O        2.1431883085    0.8573234568    0.2908023755
H        7.0846255763   -0.6903115228    0.0978513711
H        5.3640983793   -1.9123784338   -1.2610927605
H        6.3272636455    1.2837223914    1.4664441786
H       -0.6103671984   -0.7175667882   -2.1052131068
H        1.0175575590   -4.1645429857    0.1028490283
H        1.6191090886    0.1330710565   -2.4243399808
H        3.2566241637   -3.3428309896   -0.2775554719
H       -0.7407390445   -2.3230218306   -0.1261417892
H       -0.6469469985   -3.2408824593   -1.6069443567
H        3.2518225426   -1.8433745949   -2.3611908924
H        4.0306659288    1.8530490527    1.4206457798
24   
torsion grid (90,)
C        6.0365644950   -0.2128390035   -0.0010229951
C        5.1151583206   -0.9477411177   -0.8056878661
C        5.5319089470    0.7047583282    0.8748574415
C        3.7562772082   -0.7598872596   -0.7479035509
C        3.2024887823    0.1561875025    0.2521971970
C        0.3546668717   -1.2290213988   -1.8165369716
C        1.1522162202   -3.1159415953   -0.3681701017
C        1.6171969855   -0.9340729390   -2.1338564522
C        2.4159255601   -2.8507216981   -0.7145524250
C       -0.0156771036   -2.2641073878   -0.7895813526
C        2.8103496168   -1.6485787044   -1.5470315785
N        4.1806062150    0.8816059941    0.9650106447
O        2.0128038092    0.3359057011    0.5211456475
H        7.1063572896   -0.3667542415   -0.0790294620
H        5.5098928596   -1.6774826762   -1.5113442070
H        6.1470481836    1.3189860054    1.5245506193
H       -0.4599323889   -0.6770882340   -2.2824067825
H        0.9362355606   -3.9862388262    0.2504046621
H        1.8307762276   -0.1469534540   -2.8550876785
H        3.2283958990   -3.4907079660   -0.3744551677
H       -0.4319182729   -1.7563083591    0.0944044587
H       -0.8260545600   -2.9036147319   -1.1677692828
H        3.4148581515   -2.0190077653   -2.3899991323
H        3.7925029716    1.5242933784    1.6484353343
24   
torsion grid (105,)
C        6.0247360867   -0.0666711504   -0.1018991505
C        5.1358970566   -0.8660188402   -0.8819922707
C        5.4870119954    0.7272094572    0.8698437329
C        3.7751197710   -0.8611367960   -0.7017828234
C        3.1936200620   -0.0540793801    0.3744471535
C        0.4429284581   -1.2013074451   -1.8315055328
C        1.0986545172   -3.0815822496   -0.3097442773
C        1.7225207310   -1.0256938564   -2.1707579721
C        2.3784936436   -2.9244782873   -0.6612817688
C        0.0063382515   -2.1393155440   -0.7395566891
C        2.8624762328   -1.7702273750   -1.5135366838
N        4.1362264561    0.7283425032    1.0726476519
O        2.0088052707   -0.0055132472    0.7130996573
H        7.0951474945   -0.0788529781   -0.2703140988
H        5.5552970385   -1.4990149952   -1.6624973595
H        6.0751654491    1.3749721723    1.5118816004
H       -0.3322268309   -0.6272347218   -2.3367238827
H        0.8141160819   -3.9190086658    0.3258682946
H        1.9934216651   -0.3114902127   -2.9467135907
H        3.1387731349   -3.6202351649   -0.3100318040
H       -0.3143523203   -1.5441879232    0.1290772229
H       -0.8784812603   -2.7082817984   -1.0575500340
H        3.4974760241   -2.1835741726   -2.3112479053
H        3.7293764232    1.2932381173    1.8115784137
24   
torsion grid (120,)
C        4.7315649493    1.3823698940    0.6615280184
C        3.4476046941    0.9853265149    0.1804734079
C        5.7193767841    0.4410629354    0.7031176345
C        3.1699602907   -0.2917272808   -0.2394119870
C        4.2191810366   -1.3136576215   -0.1855735442
C        0.8927865156   -2.9561598283   -0.1495726738
C        1.5685758129   -2.4467911562   -2.5062522622
C        1.1404410888   -1.6899703534    0.1975092967
C        1.8216262412   -1.1808756433   -2.1630833924
C        1.2270690950   -3.5161292405   -1.5051666767
C        1.7844713668   -0.6844247145   -0.7336065726
N        5.4561511037   -0.8346671581    0.2921779464
O        4.1213582571   -2.5011817272   -0.5035642747
H        4.9275076430    2.3977755569    0.9853556491
H        2.6538548087    1.7297076026    0.1423364639
H        6.7280201804    0.6414706393    1.0498359274
H        0.4452368272   -3.6347552657    0.5751725076
H        1.6291531398   -2.7426329201   -3.5525220646
H        0.9028788486   -1.3373941303    1.2000075674
H        2.0917574465   -0.4486165807   -2.9224586880
H        2.0872918542   -4.1954147333   -1.4060377352
H        0.3963777324   -4.1327489928   -1.8760210903
H        1.1866942136    0.2380746366   -0.7070597685
H        6.1812653947   -1.5442951053    0.3277695901
24   
torsion grid (135,)
C        4.6726330219    1.3090638051    0.8468373553
C        3.4151541865    0.9342385717    0.2856369127
C        5.6997863100    0.4129817464    0.7712677001
C        3.2009944583   -0.2731311779   -0.3325706142
C        4.2748825491   -1.2702353610   -0.3479957106
C        0.9027063696   -2.8788808377   -0.0966650521
C        1.5488563805   -2.5387099832   -2.4892161818
C        1.1634080042   -1.5930936959    0.1587796795
C        1.8396888301   -1.2618250440   -2.2304898583
C        1.2052969328   -3.5341663455   -1.4167473259
C        1.8178480220   -0.6605659784   -0.8422288597
N        5.4951172800   -0.8023308142    0.1826082916
O        4.2106568868   -2.4320358175   -0.7561331900
H        4.8199250319    2.2747596592    1.3159234263
H        2.5919689037    1.6453515923    0.3359237312
H        6.6951689907    0.6033399739    1.1594717116
H        0.4578175126   -3.5001383575    0.6794991810
H        1.5926109907   -2.9026425733   -3.5144043456
H        0.9422884597   -1.1710432752    1.1380555487
H        2.1183152166   -0.5910487175   -3.0420225230
H        2.0556011014   -4.2214578500   -1.2892676429
H        0.3577740488   -4.1591961586   -1.7310198403
H        1.2380174742    0.2725624576   -0.8786349089
H        6.2394302923   -1.4923797690    0.1593898438
24   
torsion grid (150,)
C        4.5287210310    1.3128120565    1.0552438518
C        3.3215325620    0.8821608068    0.4290008060
C        5.6524363883    0.5624756665    0.8603729597
C        3.2440041671   -0.2358957695   -0.3650780545
C        4.4266422426   -1.0851301488   -0.5210374894
C        0.7772237949   -2.7976088883   -0.0563202276
C        1.4754330419   -2.6376146467   -2.4545539243
C        1.2114428020   -1.5507658136    0.1526567765
C        1.9525009232   -1.4105834275   -2.2354884443
C        0.8928503399   -3.5082087815   -1.3765765764
C        1.8931652284   -0.6993987384   -0.9035419707
N        5.5869055543   -0.5640429216    0.0916073051
O        4.5000822303   -2.1663641132   -1.1087781136
H        4.5641236983    2.2079947139    1.6648313122
H        2.4215620580    1.4779814651    0.5759139269
H        6.6204723128    0.8047225943    1.2870002045
H        0.3106621707   -3.3432236181    0.7631243757
H        1.5483033635   -3.0664785486   -3.4524749816
H        1.1020210676   -1.0950019758    1.1357073820
H        2.4022640462   -0.8547378234   -3.0565668534
H        1.5194923575   -4.4055102928   -1.2562452330
H       -0.0939175070   -3.8873618267   -1.6818105440
H        1.2975090182    0.2168588949   -1.0353694680
H        6.4062550130   -1.1516002303   -0.0273126301
24   
torsion grid (165,)
C        4.5393940921    1.1455131808    1.1427477928
C        3.3593662378    0.6860264415    0.4882798615
C        5.7237462909    0.5518663733    0.8134137546
C        3.3578330461   -0.3102143326   -0.4583704402
C        4.6184412221   -0.9717303550   -0.7963864341
C        0.6776154245   -2.7276212070   -0.1057912610
C        1.5022926950   -2.7972108831   -2.4653720970
C        1.2518826991   -1.5315460401    0.0566803101
C        2.1129609362   -1.6220537889   -2.2922190105
C        0.7153289489   -3.5008384253   -1.3943556793
C        2.0227974659   -0.7975444407   -1.0290045759
N        5.7390825173   -0.4451846549   -0.1180960074
O        4.7934548245   -1.9029363824   -1.5869848841
H        4.5073260671    1.9397492685    1.8791298125
H        2.4126152579    1.1589015576    0.7461432914
H        6.6785460954    0.8243996700    1.2513709221
H        0.1466656216   -3.1795151823    0.7313437949
H        1.5999129342   -3.3071478149   -3.4221904699
H        1.1836576240   -1.0303874239    1.0207427732
H        2.6901056378   -1.1955452829   -3.1081601370
H        1.1430270625   -4.4988967930   -1.2136543847
H       -0.3123262914   -3.6932621394   -1.7395060339
H        1.4593685732    0.1174918475   -1.2723498397
H        6.6097446619   -0.9081913194   -0.3594733910
24   
torsion grid (180,)
C        4.5141510282    1.0082369335    1.3161249565
C        3.3554510609    0.5565814672    0.6202625195
C        5.7310504942    0.5665354742    0.8845266307
C        3.3978552266   -0.2866634758   -0.4653945633
C        4.7019208066   -0.7465925713   -0.9473978982
C        0.6228881328   -2.5754688743   -0.1255558296
C        1.6297557440   -2.8778304550   -2.3892854962
C        1.1788321730   -1.3625520908   -0.0439096773
C        2.2159708468   -1.6803484467   -2.2973752737
C        0.7979881301   -3.4955617764   -1.3001293654
C        2.0790153119   -0.7549335226   -1.1086451988
N        5.7938446612   -0.2697099380   -0.1907945720
O        4.9420868760   -1.4747377993   -1.9157124263
H        4.4392628081    1.6758789342    2.1662373508
H        2.3888791164    0.9134280227    0.9690067097
H        6.6741722026    0.8401308675    1.3464115145
H        0.0001694158   -2.9280219595    0.6959081392
H        1.7638641085   -3.4600922533   -3.2994205898
H        0.9898611811   -0.7600244016    0.8416989843
H        2.8089803614   -1.3153642965   -3.1284795020
H        1.2524590584   -4.4414472968   -0.9667197960
H       -0.1889859015   -3.7817060029   -1.6943858373
H        1.5900862410    0.1642418169   -1.4703616609
H        6.6907514987   -0.6010417398   -0.5320401475
