18   
torsion grid (-165,)
C        5.9271831161    0.9497105889    0.7789537080
C        4.7760240540    1.5534520202    1.2941248759
C        5.8083366064   -0.0075790041   -0.2348362649
C        3.5162508574    1.2003002561    0.7992882105
C        4.5475578659   -0.3572876010   -0.7256813090
C        3.3853558843    0.2426767927   -0.2167115255
C        2.0208993776   -0.1753748883   -0.7205179516
C        1.5256256589   -1.4248522513    0.0059077992
F        0.4438278389   -1.9888682911   -0.6937531881
H        6.9073428810    1.2250070258    1.1595954130
H        4.8584697977    2.3013753034    2.0787063258
H        6.6980129061   -0.4781147967   -0.6457388484
H        2.6253764506    1.6782275655    1.2020023223
H        4.4644352163   -1.0984835427   -1.5183873876
H        2.0742889958   -0.4163907790   -1.7876345809
H        1.2923132291    0.6325912481   -0.6041573215
H        1.1849334707   -1.2021583694    1.0219912074
H        2.3097712899   -2.1871374446    0.0492235724
18   
torsion grid (-150,)
C        5.9380941973    0.9449426350    0.7537348941
C        4.7994009769    1.5571786274    1.2855519509
C        5.7980991818   -0.0126275486   -0.2575086067
C        3.5301056510    1.2118337291    0.8088255989
C        4.5282222738   -0.3545557675   -0.7292986473
C        3.3776233939    0.2536313381   -0.2033128736
C        2.0035343450   -0.1549671917   -0.6887384202
C        1.5081096370   -1.4304105871    0.0035350043
F        0.6576493052   -2.1472402102   -0.8585941932
H        6.9256649438    1.2136828932    1.1195930141
H        4.8983029542    2.3049990813    2.0683727198
H        6.6785406393   -0.4891244795   -0.6812836863
H        2.6486291051    1.6965873125    1.2238327161
H        4.4282725702   -1.0970661276   -1.5188059737
H        2.0464804865   -0.3773338096   -1.7601549851
H        1.2814661981    0.6559575393   -0.5558619016
H        0.9492566088   -1.2193938818    0.9202995594
H        2.3455965579   -2.0940356013    0.2379522871
18   
torsion grid (-135,)
C        5.9323365286    0.9235033868    0.7152588250
C        4.8083453823    1.5576195719    1.2518122607
C        5.7672735319   -0.0531017145   -0.2742547308
C        3.5281072220    1.2154715900    0.8014276949
C        4.4873060264   -0.3913586688   -0.7196993484
C        3.3506008874    0.2386034954   -0.1877835574
C        1.9663465980   -0.1643121413   -0.6487575380
C        1.4905499846   -1.4883084279   -0.0240340488
F        0.9099273804   -2.3089050885   -1.0102383803
H        6.9280328847    1.1890992569    1.0608400866
H        4.9263826834    2.3196101322    2.0181698973
H        6.6364357499   -0.5469363340   -0.7015202264
H        2.6581343823    1.7166822271    1.2210581980
H        4.3674561045   -1.1491911068   -1.4916641029
H        1.9748408964   -0.3210594116   -1.7323050627
H        1.2463546256    0.6343613287   -0.4488750326
H        0.7378624761   -1.3367313945    0.7550611687
H        2.3308463956   -2.0506554114    0.3920427062
18   
torsion grid (-120,)
C        5.9539719386    0.9254188776    0.6949492308
C        4.8515682091    1.5956727664    1.2317526297
C        5.7534762692   -0.0741799181   -0.2649105490
C        3.5572223501    1.2671854392    0.8114611716
C        4.4603033633   -0.3980922933   -0.6811611489
C        3.3446821626    0.2682044553   -0.1475637566
C        1.9464883036   -0.1161797432   -0.5814140440
C        1.4932437125   -1.4905090684   -0.0509016641
F        1.1969642599   -2.3535514367   -1.1247705664
H        6.9601339799    1.1797547916    1.0180059278
H        4.9968090011    2.3748359534    1.9758657865
H        6.6057118522   -0.5972440439   -0.6915650292
H        2.7044940976    1.7955318562    1.2331697030
H        4.3120728444   -1.1744091432   -1.4293517821
H        1.8942911990   -0.1703708028   -1.6736242861
H        1.2365719718    0.6566386887   -0.2722088147
H        0.5835123433   -1.4183296487    0.5520916138
H        2.2779062572   -1.9748684579    0.5359147282
18   
torsion grid (-105,)
C        5.7082234599    1.3604599197    0.9206149690
C        4.5171190046    2.0901008164    0.8825051739
C        5.7505646623    0.0802100118    0.3550100817
C        3.3758524165    1.5431998744    0.2837126438
C        4.6106420187   -0.4616543404   -0.2427885861
C        3.4077425820    0.2633400673   -0.2847802941
C        2.1712059102   -0.3465083201   -0.9092581868
C        1.6463244664   -1.5873034165   -0.1695000192
F        1.9630635895   -2.7554190806   -0.8932184963
H        6.5954452999    1.7837760079    1.3844421767
H        4.4739747508    3.0853039998    1.3179540104
H        6.6737738034   -0.4935268232    0.3772429927
H        2.4529119878    2.1192041722    0.2590056285
H        4.6499258182   -1.4565449893   -0.6815482424
H        2.3642419414   -0.6484489789   -1.9441330248
H        1.3788018094    0.4079426635   -0.9484714871
H        0.5557522196   -1.5704793522   -0.0826659927
H        2.0893278008   -1.6921696603    0.8241837787
18   
torsion grid (-90,)
C        5.7222191474    1.3466575500    0.9070007139
C        4.5307878216    2.0770130811    0.8965392763
C        5.7574314473    0.0758116662    0.3206745590
C        3.3826922272    1.5383643351    0.3040334910
C        4.6103004771   -0.4577157969   -0.2715250038
C        3.4068976590    0.2675116765   -0.2857616061
C        2.1589376271   -0.3300496968   -0.8990921477
C        1.6343988749   -1.5637032253   -0.1611814660
F        2.2172301527   -2.7319154437   -0.6942287183
H        6.6154798565    1.7629028157    1.3656689344
H        4.4931861171    3.0654900243    1.3476193543
H        6.6807106348   -0.4982942367    0.3231821237
H        2.4595911825    2.1147383370    0.3002424641
H        4.6423402059   -1.4461045887   -0.7234875656
H        2.3251145882   -0.6180266935   -1.9430176008
H        1.3650417014    0.4252264984   -0.9053641351
H        0.5539136744   -1.6746300094   -0.2977953886
H        1.8698368057   -1.5376729002    0.9062650945
18   
torsion grid (-75,)
C        5.7404606662    1.3412265068    0.8902751637
C        4.5183953882    2.0169005002    0.9558691600
C        5.8146819595    0.1132894686    0.2228448106
C        3.3799891808    1.4655969988    0.3578703461
C        4.6757172436   -0.4338319372   -0.3737173558
C        3.4432863274    0.2360814660   -0.3131400599
C        2.2019223155   -0.3755739386   -0.9244514549
C        1.6224352452   -1.5273435376   -0.1083751864
F        2.4134194056   -2.6811872010   -0.2665429395
H        6.6272575720    1.7679277778    1.3519286510
H        4.4508013698    2.9733157607    1.4683963345
H        6.7613850505   -0.4183478954    0.1669908431
H        2.4335598074    2.0005596854    0.4104573073
H        4.7377916390   -1.3908960191   -0.8847219391
H        2.4012597913   -0.7466264534   -1.9359316520
H        1.4202209754    0.3880139581   -1.0144303779
H        0.6172945272   -1.7877715284   -0.4566335632
H        1.5947865608   -1.2949874119    0.9604632473
18   
torsion grid (-60,)
C        5.7497328151    1.3263120491    0.8939919610
C        4.5136211412    1.9690108903    1.0116412229
C        5.8404740097    0.1326342800    0.1693441801
C        3.3786567958    1.4187645284    0.4070343561
C        4.7037657299   -0.4137923403   -0.4322656884
C        3.4587019626    0.2232764496   -0.3217882074
C        2.2214589425   -0.3844674042   -0.9447749532
C        1.5916851637   -1.4856674376   -0.0967521615
F        2.5037554621   -2.5353293206    0.1040351027
H        6.6345893848    1.7523078057    1.3600192977
H        4.4330984684    2.8990443717    1.5688889258
H        6.7977609647   -0.3737788439    0.0739969526
H        2.4211611666    1.9284172606    0.4986445299
H        4.7791443285   -1.3460021953   -0.9857473552
H        2.4592414458   -0.8014482575   -1.9299096675
H        1.4548062547    0.3839860851   -1.0998639250
H        0.7122548811   -1.9107756203   -0.5919644722
H        1.3122479342   -1.1130048853    0.8941152398
18   
torsion grid (-45,)
C        5.7593815330    1.3018090562    0.8613031486
C        4.5245125303    1.9379700476    1.0190786240
C        5.8357378941    0.1226525399    0.1114883599
C        3.3770564327    1.3972662941    0.4295483824
C        4.6873533362   -0.4151007335   -0.4749136339
C        3.4444366731    0.2167557724   -0.3240323567
C        2.1978656055   -0.3771053562   -0.9421427940
C        1.5490470520   -1.4727278426   -0.0914004540
F        2.5106343976   -2.3673374929    0.4014230140
H        6.6536567692    1.7209076754    1.3155105425
H        4.4544210212    2.8565413945    1.5963469318
H        6.7916197901   -0.3794571667   -0.0152089061
H        2.4205069196    1.9020352149    0.5527977235
H        4.7530293941   -1.3365531712   -1.0477727142
H        2.4474641359   -0.7962494133   -1.9236046826
H        1.4405526922    0.3968210973   -1.1113711974
H        0.8261897142   -2.0525618817   -0.6742290516
H        1.0502208534   -1.0426052583    0.7837667771
18   
torsion grid (-30,)
C        5.7723053667    1.2836525680    0.8612623126
C        4.5336826221    1.9032358400    1.0528224313
C        5.8512720445    0.1267239330    0.0780824069
C        3.3844937522    1.3671121776    0.4628331246
C        4.6996100953   -0.4048905336   -0.5076069177
C        3.4526915121    0.2088792819   -0.3240474328
C        2.2047464325   -0.3802311781   -0.9454678279
C        1.5315821577   -1.4659804850   -0.0849365600
F        2.4658251703   -2.1588469040    0.6972683829
H        6.6682013369    1.6988821444    1.3157705828
H        4.4622168510    2.8043525569    1.6568671828
H        6.8102693174   -0.3618409663   -0.0753852798
H        2.4246277958    1.8579000238    0.6130967408
H        4.7676920655   -1.3089266251   -1.1080858269
H        2.4708416833   -0.8118757163   -1.9164957207
H        1.4624687475    0.4010454249   -1.1405104368
H        1.0069423717   -2.2004421537   -0.7036955861
H        0.8230707299   -1.0170409713    0.6190967296
18   
torsion grid (-15,)
C        5.7845464528    1.2680526654    0.8547609058
C        4.5463173086    1.8799809221    1.0725321157
C        5.8574315662    0.1266630989    0.0488223204
C        3.3916517947    1.3515646358    0.4867837203
C        4.7000887891   -0.3969728487   -0.5331309130
C        3.4537163503    0.2087640138   -0.3222343295
C        2.2000528401   -0.3717135558   -0.9412945005
C        1.5214680521   -1.4694743107   -0.0843577348
F        2.3690081879   -1.9466993876    0.9242950898
H        6.6845536264    1.6774800839    1.3063787223
H        4.4794323680    2.7689621865    1.6948119175
H        6.8160499457   -0.3552930893   -0.1264237444
H        2.4319096167    1.8347931016    0.6597151727
H        4.7646974330   -1.2877258911   -1.1542036898
H        2.4588918586   -0.7928169021   -1.9181922849
H        1.4700574407    0.4226472553   -1.1256424448
H        1.2269708458   -2.3292215020   -0.6934415156
H        0.6368486938   -1.0752030542    0.4255459979
18   
torsion grid (0,)
C        5.8032166042    1.2505231711    0.8548676674
C        4.5638932314    1.8503428577    1.1002001637
C        5.8725287516    0.1253748078    0.0266425709
C        3.4044949859    1.3264817368    0.5206821336
C        4.7098296301   -0.3935158992   -0.5498342732
C        3.4626818328    0.1999605989   -0.3108506607
C        2.2031712194   -0.3749276623   -0.9238302770
C        1.5242927734   -1.4759864828   -0.0646537203
F        2.2230516325   -1.7218559253    1.1246203859
H        6.7064409089    1.6571389644    1.3025829249
H        4.5000535400    2.7263384911    1.7409255574
H        6.8316394498   -0.3467793939   -0.1712406351
H        2.4439924153    1.7983693363    0.7177700723
H        4.7722972978   -1.2701269575   -1.1914824571
H        2.4414344281   -0.7920052795   -1.9072041378
H        1.4853371406    0.4336986983   -1.0920460104
H        1.4791747928   -2.4277708411   -0.6023432133
H        0.5101671845   -1.1843066261    0.2243185980
18   
torsion grid (15,)
C        5.8322611021    1.1960777501    0.8771934605
C        4.5749638517    1.7369622705    1.1680816925
C        5.9330386897    0.1335859934   -0.0259643974
C        3.4295388795    1.2174954269    0.5597548695
C        4.7828524977   -0.3816872711   -0.6322442593
C        3.5189528557    0.1530447205   -0.3481117933
C        2.2734122117   -0.4161491128   -0.9935248904
C        1.5606202403   -1.5010708628   -0.1480730957
F        2.0059622453   -1.5081196592    1.1806247170
H        6.7243749849    1.6006275548    1.3484545752
H        4.4872017300    2.5634316382    1.8689326071
H        6.9055448121   -0.2919251151   -0.2608296330
H        2.4553309205    1.6401112599    0.7955068629
H        4.8700994471   -1.2075611166   -1.3356732839
H        2.5197208845   -0.8460392091   -1.9693765861
H        1.5737799730    0.4051140660   -1.1802639425
H        1.7685770724   -2.5009870730   -0.5416239748
H        0.4779688219   -1.3456076486   -0.1257454097
18   
torsion grid (30,)
C        5.8465668055    1.2279013584    0.8238273798
C        4.6041713482    1.7714048278    1.1693106554
C        5.9040980301    0.1482517943   -0.0625120676
C        3.4299127815    1.2381463694    0.6322043944
C        4.7252467265   -0.3806900684   -0.5981257447
C        3.4757772859    0.1568425039   -0.2589609693
C        2.2005459733   -0.4294797285   -0.8250196744
C        1.5469849968   -1.4928459712    0.0778174185
F        1.8091341997   -1.2526603598    1.4335416478
H        6.7605655726    1.6437236970    1.2401514171
H        4.5504446342    2.6104817611    1.8584967778
H        6.8644615094   -0.2791945805   -0.3399577730
H        2.4677890788    1.6606425343    0.9119731341
H        4.7786972818   -1.2184554718   -1.2910027630
H        2.3844290280   -0.8872569464   -1.8027676519
H        1.4862842791    0.3850815103   -0.9874832068
H        1.9559328320   -2.4858516218   -0.1364287904
H        0.4605480638   -1.5160710756   -0.0511771376
18   
torsion grid (45,)
C        5.8351283272    1.1874098002    0.8239214923
C        4.5926599733    1.7209963391    1.1844648130
C        5.8938446449    0.1386826401   -0.0987270459
C        3.4181036313    1.2096018224    0.6268723786
C        4.7145459364   -0.3681593418   -0.6544744413
C        3.4642614842    0.1593256757   -0.3011544012
C        2.1910719957   -0.4098849155   -0.8880004111
C        1.5219055530   -1.4630686356   -0.0004015918
F        1.4839832775   -1.0457139761    1.3384360867
H        6.7486320179    1.5871906391    1.2567109226
H        4.5388880456    2.5356405247    1.9023613912
H        6.8540516826   -0.2807462179   -0.3887253163
H        2.4560840143    1.6225841281    0.9193181395
H        4.7684297899   -1.1808852147   -1.3765853228
H        2.3846441350   -0.8767367384   -1.8604397633
H        1.4795855049    0.4051433904   -1.0627355174
H        2.0885246933   -2.4002888156   -0.0146457256
H        0.4917860951   -1.6552130052   -0.3172655010
18   
torsion grid (60,)
C        5.8458093879    1.1610838018    0.8258323970
C        4.6068127907    1.6790157076    1.2193593742
C        5.8945705327    0.1412036631   -0.1293269860
C        3.4263077626    1.1803750030    0.6622401124
C        4.7103468161   -0.3542475609   -0.6848630092
C        3.4635441868    0.1580894316   -0.2978719133
C        2.1847455099   -0.4052651910   -0.8771495431
C        1.5168971359   -1.4439856657    0.0191930801
F        1.1868609820   -0.8816406412    1.2636981441
H        6.7640806928    1.5507073414    1.2578018094
H        4.5602735035    2.4714577242    1.9622011334
H        6.8522089325   -0.2652385929   -0.4450868969
H        2.4668240879    1.5804437290    0.9790514980
H        4.7573993745   -1.1444085034   -1.4321040951
H        2.3821690192   -0.8880840977   -1.8416359086
H        1.4665672475    0.4009003402   -1.0648203113
H        2.1873672990   -2.2863492086    0.2183696997
H        0.5867917991   -1.8110224398   -0.4275117804
18   
torsion grid (75,)
C        5.8512618331    1.1562147105    0.8095842490
C        4.6083447890    1.6251376895    1.2500532227
C        5.9046774620    0.1805233353   -0.1901729243
C        3.4288956834    1.1218761216    0.6949279355
C        4.7215398801   -0.3213707803   -0.7430975444
C        3.4711130023    0.1413739698   -0.3091133755
C        2.1935375794   -0.4325391099   -0.8811350341
C        1.4917991462   -1.4132046635    0.0539618764
F        0.8525609238   -0.7171982019    1.0972908339
H        6.7686816915    1.5498210136    1.2397211308
H        4.5581945898    2.3840965352    2.0268860193
H        6.8651384539   -0.1875583893   -0.5423298503
H        2.4665011226    1.4847856606    1.0457062130
H        4.7726281967   -1.0779617952   -1.5238891655
H        2.4139185548   -0.9678181370   -1.8123072534
H        1.4811895842    0.3612866810   -1.1319707938
H        2.1970099652   -2.1127976039    0.5127413900
H        0.7105825138   -1.9692451472   -0.4751487321
18   
torsion grid (90,)
C        5.8566742357    1.1318923417    0.8066655051
C        4.6059727336    1.5179581631    1.3034214797
C        5.9259413194    0.2291114944   -0.2578645494
C        3.4358466664    1.0054121612    0.7383023247
C        4.7513798403   -0.2840582565   -0.8203502218
C        3.4944824784    0.0957479160   -0.3310062499
C        2.2240002179   -0.4817356767   -0.9167152956
C        1.4417285168   -1.3703963111    0.0527787879
F        0.5180684680   -0.5950695634    0.7836615573
H        6.7671980369    1.5325973761    1.2447673735
H        4.5432695548    2.2210289010    2.1303479631
H        6.8921086880   -0.0758683566   -0.6521748349
H        2.4670487325    1.3066744351    1.1293030771
H        4.8152412908   -0.9861548097   -1.6493991186
H        2.4754800710   -1.0807433474   -1.7991557940
H        1.5459059629    0.3083567119   -1.2576883848
H        2.0945570562   -1.8690576316    0.7743797152
H        0.8505301750   -2.1171134233   -0.4869639257
18   
torsion grid (105,)
C        5.8684355547    1.1125726785    0.7987178985
C        4.6238929428    1.4908309374    1.3171708398
C        5.9235742718    0.2276558019   -0.2812921484
C        3.4474525513    0.9873387335    0.7578044103
C        4.7420796718   -0.2761409116   -0.8384350592
C        3.4920128322    0.0957444659   -0.3272731746
C        2.2112045206   -0.4660283683   -0.9059587746
C        1.4242872078   -1.3561995453    0.0690559813
F        0.2968260046   -0.6643260466    0.5576507310
H        6.7844728250    1.5054607660    1.2323107903
H        4.5714244043    2.1812924925    2.1553205830
H        6.8847263077   -0.0716027227   -0.6918409986
H        2.4833143188    1.2857336283    1.1643139175
H        4.7951341208   -0.9647923413   -1.6793495699
H        2.4461044854   -1.0428433566   -1.8063649757
H        1.5378421621    0.3388015885   -1.2194042294
H        2.0241559919   -1.6494950311    0.9343890939
H        1.0389082263   -2.2515602225   -0.4279068191
18   
torsion grid (120,)
C        5.8519740945    1.0670915155    0.7910777379
C        4.6258780971    1.4981261304    1.3123025085
C        5.8677506035    0.1650518073   -0.2760300399
C        3.4282897218    1.0283533936    0.7686869203
C        4.6645165511   -0.3031170521   -0.8172978670
C        3.4319837255    0.1204945680   -0.3033114352
C        2.1276541629   -0.4076961498   -0.8606575672
C        1.4058563663   -1.3875168090    0.0851160383
F        0.1312221598   -0.8896708241    0.4218233542
H        6.7845880150    1.4337771636    1.2120103838
H        4.6043101174    2.2036812963    2.1391433279
H        6.8144548317   -0.1738818384   -0.6892743691
H        2.4789670380    1.3694300230    1.1771908814
H        4.6858653348   -1.0038886372   -1.6495240158
H        2.3043416908   -0.8847434869   -1.8292150832
H        1.4343148662    0.4200728768   -1.0413505469
H        1.9514332962   -1.5181419604    1.0231613242
H        1.2467786441   -2.3648744835   -0.3795162356
18   
torsion grid (135,)
C        5.9030089823    1.0660076716    0.8108301900
C        4.6826355373    1.5344893698    1.3121331027
C        5.9079043580    0.1456691072   -0.2409908627
C        3.4794252947    1.0828894742    0.7648337906
C        4.6995244670   -0.3030979934   -0.7862633031
C        3.4718515773    0.1580584244   -0.2918061697
C        2.1619314732   -0.3543791473   -0.8508353371
C        1.5023634828   -1.4153348052    0.0484961264
F        0.1264995444   -1.1482188928    0.1850811893
H        6.8398546774    1.4186058666    1.2343589236
H        4.6695236364    2.2551121851    2.1260127400
H        6.8504091818   -0.2215079105   -0.6393963145
H        2.5349476925    1.4545338280    1.1578277260
H        4.7117846748   -1.0166035496   -1.6077942937
H        2.3016010871   -0.7436170993   -1.8633734752
H        1.4489722469    0.4733137364   -0.9240749066
H        1.9243456523   -1.3929360410    1.0569146937
H        1.5968447674   -2.4262018311   -0.3586204487
18   
torsion grid (150,)
C        5.8969463271    1.0270787032    0.7940072972
C        4.6971075562    1.5452019954    1.2951174552
C        5.8607908463    0.0899131174   -0.2426263186
C        3.4735925908    1.1276671078    0.7651263937
C        4.6333888742   -0.3245924024   -0.7711745523
C        3.4257062160    0.1875078102   -0.2760862842
C        2.0961568008   -0.2942508085   -0.8151457718
C        1.5033727151   -1.4173121888    0.0442821196
F        0.0977275047   -1.3765571637   -0.0127945416
H        6.8487509445    1.3543000222    1.2043898057
H        4.7154774793    2.2791669629    2.0968111675
H        6.7866698250   -0.3159744788   -0.6423895304
H        2.5460423992    1.5390895481    1.1588216876
H        4.6140996596   -1.0502859597   -1.5818797341
H        2.1864687990   -0.6172523448   -1.8564734172
H        1.3743288819    0.5289179121   -0.7941228901
H        1.7759578020   -1.2848298356    1.0954412544
H        1.8201318734   -2.4109988891   -0.2866892450
18   
torsion grid (165,)
C        5.9055133175    1.0022582232    0.7876927651
C        4.7173033257    1.5311761588    1.3040581622
C        5.8502285816    0.0727049735   -0.2554155459
C        3.4856634812    1.1295839956    0.7799260736
C        4.6148966364   -0.3258326813   -0.7765557287
C        3.4178066304    0.1978809227   -0.2674987596
C        2.0783826730   -0.2666655353   -0.7970229123
C        1.5153135501   -1.4035194126    0.0539855792
F        0.1505263326   -1.5852240526   -0.2326819274
H        6.8646860298    1.3154991858    1.1917272247
H        4.7506148260    2.2589023242    2.1109700444
H        6.7684541487   -0.3400432025   -0.6656072357
H        2.5660631613    1.5498674794    1.1828443234
H        4.5801932487   -1.0461099018   -1.5915688021
H        2.1557070626   -0.5895084165   -1.8394838195
H        1.3572162769    0.5571921929   -0.7623187382
H        1.5891787033   -1.1649720917    1.1194975576
H        2.0249981780   -2.3531321134   -0.1376955565
18   
torsion grid (180,)
C        5.9140867415    0.9786460216    0.7752420818
C        4.7409451577    1.5313894426    1.2998901615
C        5.8323225423    0.0464604168   -0.2643450575
C        3.4966268740    1.1521004924    0.7879852392
C        4.5853343322   -0.3297339093   -0.7727805705
C        3.4025098767    0.2187388529   -0.2554254936
C        2.0519079619   -0.2269264864   -0.7719259859
C        1.5240215709   -1.4014569906    0.0462717332
F        0.2697109175   -1.8025151656   -0.4464913876
H        6.8826069535    1.2749021973    1.1696856934
H        4.7953575122    2.2603194774    2.1045403254
H        6.7389441556   -0.3845866558   -0.6814669376
H        2.5887031337    1.5912867352    1.1970310998
H        4.5296936434   -1.0520865350   -1.5848808381
H        2.1205088184   -0.5343554865   -1.8203034255
H        1.3267777032    0.5915197868   -0.7161775046
H        1.3908244597   -1.1277804144    1.0978059756
H        2.1931949686   -2.2654678945   -0.0178542734
