
  -OEChem-05262117483D

 35 37  0     0  0  0  0  0  0999 V2000
    2.7257    2.2691   -2.5876 C   0  0  0  0  0  0  0  0  0  0  0  0
    3.9080    1.1613   -0.7870 C   0  0  0  0  0  0  0  0  0  0  0  0
    5.1481    2.4746   -2.4109 C   0  0  0  0  0  0  0  0  0  0  0  0
    2.7055    1.4546   -1.4368 C   0  0  0  0  0  0  0  0  0  0  0  0
    3.9369    2.7632   -3.0549 C   0  0  0  0  0  0  0  0  0  0  0  0
    5.1233    1.6665   -1.2679 C   0  0  0  0  0  0  0  0  0  0  0  0
    0.0242   -0.1389    0.3253 C   0  0  0  0  0  0  0  0  0  0  0  0
   -0.7090    0.4382   -0.6864 C   0  0  0  0  0  0  0  0  0  0  0  0
    1.4609    0.9055   -0.9000 C   0  0  0  0  0  0  0  0  0  0  0  0
   -0.6094   -0.9611    1.4050 C   0  0  0  0  0  0  0  0  0  0  0  0
   -2.1881    0.3237   -0.8570 C   0  0  0  0  0  0  0  0  0  0  0  0
   -2.6508   -0.8406    0.0421 C   0  0  0  0  0  0  0  0  0  0  0  0
    7.4967    1.8033   -0.9977 C   0  0  0  0  0  0  0  0  0  0  0  0
    3.9847    3.6347   -4.2814 C   0  0  0  0  0  0  0  0  0  0  0  0
    1.3603    0.1475    0.1881 N   0  0  0  0  0  0  0  0  0  0  0  0
    0.2158    1.1086   -1.4639 N   0  0  0  0  0  0  0  0  0  0  0  0
   -2.0628   -0.7064    1.3825 N   0  0  0  0  0  0  0  0  0  0  0  0
    6.2326    1.3154   -0.5541 O   0  0  0  0  0  0  0  0  0  0  0  0
    2.7596    3.8479   -4.8205 F   0  0  0  0  0  0  0  0  0  0  0  0
    4.5173    4.8572   -4.0135 F   0  0  0  0  0  0  0  0  0  0  0  0
    4.7576    3.0899   -5.2594 F   0  0  0  0  0  0  0  0  0  0  0  0
    1.8154    2.5234   -3.1185 H   0  0  0  0  0  0  0  0  0  0  0  0
    3.9010    0.5363    0.0995 H   0  0  0  0  0  0  0  0  0  0  0  0
    6.0733    2.8780   -2.8042 H   0  0  0  0  0  0  0  0  0  0  0  0
   -0.3595   -2.0269    1.2519 H   0  0  0  0  0  0  0  0  0  0  0  0
   -0.2143   -0.6705    2.3840 H   0  0  0  0  0  0  0  0  0  0  0  0
   -2.6916    1.2495   -0.5509 H   0  0  0  0  0  0  0  0  0  0  0  0
   -2.4679    0.1209   -1.8983 H   0  0  0  0  0  0  0  0  0  0  0  0
   -3.7401   -0.8186    0.1418 H   0  0  0  0  0  0  0  0  0  0  0  0
   -2.3776   -1.7933   -0.4469 H   0  0  0  0  0  0  0  0  0  0  0  0
    8.2304    1.4088   -0.2941 H   0  0  0  0  0  0  0  0  0  0  0  0
    7.5294    2.8994   -0.9807 H   0  0  0  0  0  0  0  0  0  0  0  0
    7.7311    1.4439   -2.0071 H   0  0  0  0  0  0  0  0  0  0  0  0
    0.0107    1.6414   -2.2981 H   0  0  0  0  0  0  0  0  0  0  0  0
   -2.5241   -1.3514    2.0186 H   0  0  0  0  0  0  0  0  0  0  0  0
  1  4  1  0  0  0  0
  1  5  2  0  0  0  0
  1 22  1  0  0  0  0
  2  4  2  0  0  0  0
  2  6  1  0  0  0  0
  2 23  1  0  0  0  0
  3  5  1  0  0  0  0
  3  6  2  0  0  0  0
  3 24  1  0  0  0  0
  4  9  1  0  0  0  0
  5 14  1  0  0  0  0
  6 18  1  0  0  0  0
  7  8  2  0  0  0  0
  7 10  1  0  0  0  0
  7 15  1  0  0  0  0
  8 11  1  0  0  0  0
  8 16  1  0  0  0  0
  9 15  2  0  0  0  0
  9 16  1  0  0  0  0
 10 17  1  0  0  0  0
 10 25  1  0  0  0  0
 10 26  1  0  0  0  0
 11 12  1  0  0  0  0
 11 27  1  0  0  0  0
 11 28  1  0  0  0  0
 12 17  1  0  0  0  0
 12 29  1  0  0  0  0
 12 30  1  0  0  0  0
 13 18  1  0  0  0  0
 13 31  1  0  0  0  0
 13 32  1  0  0  0  0
 13 33  1  0  0  0  0
 14 19  1  0  0  0  0
 14 20  1  0  0  0  0
 14 21  1  0  0  0  0
 16 34  1  0  0  0  0
 17 35  1  0  0  0  0
M  END
$$$$
