
  -OEChem-05262117483D

 18 18  0     0  0  0  0  0  0999 V2000
    1.6998   -0.1935    4.3008 C   0  0  0  0  0  0  0  0  0  0  0  0
    1.7883   -0.6640    2.9522 C   0  0  0  0  0  0  0  0  0  0  0  0
    1.2545    1.1010    4.3726 C   0  0  0  0  0  0  0  0  0  0  0  0
    1.4138    0.2747    2.0223 C   0  0  0  0  0  0  0  0  0  0  0  0
   -0.0384    0.0170   -0.0138 C   0  0  0  0  0  0  0  0  0  0  0  0
    1.3745    0.1094    0.5256 C   0  0  0  0  0  0  0  0  0  0  0  0
   -0.7547    1.0195   -0.3897 N   0  0  0  0  0  0  0  0  0  0  0  0
   -0.6281   -1.2472   -0.0143 N   0  0  0  0  0  0  0  0  0  0  0  0
   -0.0570    2.2468   -0.1740 O   0  0  0  0  0  0  0  0  0  0  0  0
    0.9348    1.7603    2.8005 S   0  0  0  0  0  0  0  0  0  0  0  0
    1.9553   -0.7885    5.1718 H   0  0  0  0  0  0  0  0  0  0  0  0
    2.1165   -1.6622    2.6776 H   0  0  0  0  0  0  0  0  0  0  0  0
    1.0944    1.7056    5.2566 H   0  0  0  0  0  0  0  0  0  0  0  0
    1.8805    0.9397    0.0283 H   0  0  0  0  0  0  0  0  0  0  0  0
    1.9130   -0.8106    0.2747 H   0  0  0  0  0  0  0  0  0  0  0  0
   -0.0216   -1.9890   -0.3477 H   0  0  0  0  0  0  0  0  0  0  0  0
   -1.5321   -1.2571   -0.4782 H   0  0  0  0  0  0  0  0  0  0  0  0
   -0.7214    2.9034   -0.4348 H   0  0  0  0  0  0  0  0  0  0  0  0
  1  2  1  0  0  0  0
  1  3  2  0  0  0  0
  1 11  1  0  0  0  0
  2  4  2  0  0  0  0
  2 12  1  0  0  0  0
  3 10  1  0  0  0  0
  3 13  1  0  0  0  0
  4  6  1  0  0  0  0
  4 10  1  0  0  0  0
  5  6  1  0  0  0  0
  5  7  2  0  0  0  0
  5  8  1  0  0  0  0
  6 14  1  0  0  0  0
  6 15  1  0  0  0  0
  7  9  1  0  0  0  0
  8 16  1  0  0  0  0
  8 17  1  0  0  0  0
  9 18  1  0  0  0  0
M  END
$$$$
