19
0 1 C7ClH8N3
C                     4.539542108474     1.796289919619    -4.204178104420
C                     3.212798827412     0.315845302639    -5.279336262329
C                     3.971442030089     1.439347471233    -2.991931187187
C                     2.939734829910     0.464546025042    -3.000122003725
C                     0.725179930329    -0.303511488926    -0.506725094764
C                     1.062868117735    -0.808786257125    -1.936025729185
C                     1.914055868346     0.686686643381    -0.632089991194
N                     4.168316013566     1.245490681582    -5.374438858191
N                     2.583844793286    -0.095134933882    -4.177614403297
N                     2.290327107031     0.010502431931    -1.897152715255
Cl                    4.579179005584     2.158919842954    -1.509030505312
H                     5.327844116862     2.546426857931    -4.232790224066
H                     2.905062445845    -0.160898209483    -6.208782580681
H                     0.868014490514    -1.056466354095     0.270203297251
H                    -0.257294828838     0.156136154348    -0.391737151764
H                     1.254919820419    -1.878519888240    -2.054679277432
H                     0.367305876047    -0.484535789427    -2.716811024008
H                     1.618712399004     1.731066288353    -0.778282477120
H                     2.678804812932     0.634748360538     0.145297440884
