
  -OEChem-05262117483D

 24 23  0     1  0  0  0  0  0999 V2000
    0.7468   -2.4028    1.6743 C   0  0  0  0  0  0  0  0  0  0  0  0
    0.7708   -0.6375   -0.0735 C   0  0  0  0  0  0  0  0  0  0  0  0
    0.8299   -3.4857    6.5908 C   0  0  0  0  0  0  0  0  0  0  0  0
   -0.5146   -2.2640    3.8656 C   0  0  0  0  0  0  0  0  0  0  0  0
    0.6396   -1.5404    4.5725 C   0  0  0  0  0  0  0  0  0  0  0  0
   -0.1504   -3.1715    2.6692 C   0  0  2  0  0  0  0  0  0  0  0  0
    0.4286   -4.4346    3.1195 N   0  0  0  0  0  0  0  0  0  0  0  0
    0.0960   -1.4663    0.9163 N   0  0  0  0  0  0  0  0  0  0  0  0
    1.9591   -2.5968    1.6011 O   0  0  0  0  0  0  0  0  0  0  0  0
    1.8954   -2.5733    5.4226 S   0  0  0  0  0  0  0  0  0  0  0  0
    0.4865    0.4128    0.0473 H   0  0  0  0  0  0  0  0  0  0  0  0
    0.5336   -0.9566   -1.0954 H   0  0  0  0  0  0  0  0  0  0  0  0
    1.8449   -0.7396    0.0838 H   0  0  0  0  0  0  0  0  0  0  0  0
    1.4957   -4.0281    7.2665 H   0  0  0  0  0  0  0  0  0  0  0  0
    0.1949   -4.2043    6.0672 H   0  0  0  0  0  0  0  0  0  0  0  0
    0.2165   -2.7985    7.1819 H   0  0  0  0  0  0  0  0  0  0  0  0
   -1.0749   -2.8758    4.5788 H   0  0  0  0  0  0  0  0  0  0  0  0
   -1.2038   -1.4837    3.5169 H   0  0  0  0  0  0  0  0  0  0  0  0
    0.2215   -0.8446    5.3085 H   0  0  0  0  0  0  0  0  0  0  0  0
    1.2184   -0.9471    3.8584 H   0  0  0  0  0  0  0  0  0  0  0  0
   -1.0936   -3.4099    2.1593 H   0  0  0  0  0  0  0  0  0  0  0  0
    1.3454   -4.2352    3.5223 H   0  0  0  0  0  0  0  0  0  0  0  0
    0.6100   -5.0211    2.3055 H   0  0  0  0  0  0  0  0  0  0  0  0
   -0.9123   -1.4187    0.9780 H   0  0  0  0  0  0  0  0  0  0  0  0
  1  6  1  0  0  0  0
  1  8  1  0  0  0  0
  1  9  2  0  0  0  0
  2  8  1  0  0  0  0
  2 11  1  0  0  0  0
  2 12  1  0  0  0  0
  2 13  1  0  0  0  0
  3 10  1  0  0  0  0
  3 14  1  0  0  0  0
  3 15  1  0  0  0  0
  3 16  1  0  0  0  0
  4  5  1  0  0  0  0
  4  6  1  0  0  0  0
  4 17  1  0  0  0  0
  4 18  1  0  0  0  0
  5 10  1  0  0  0  0
  5 19  1  0  0  0  0
  5 20  1  0  0  0  0
  6  7  1  0  0  0  0
  6 21  1  0  0  0  0
  7 22  1  0  0  0  0
  7 23  1  0  0  0  0
  8 24  1  0  0  0  0
M  END
$$$$
