
  -OEChem-05262117483D

 24 23  0     1  0  0  0  0  0999 V2000
    0.5982   -2.7045    1.6871 C   0  0  0  0  0  0  0  0  0  0  0  0
    0.8248   -0.6330    0.3739 C   0  0  0  0  0  0  0  0  0  0  0  0
   -1.1189    0.2949    5.2938 C   0  0  0  0  0  0  0  0  0  0  0  0
   -0.8732   -2.7038    3.7965 C   0  0  0  0  0  0  0  0  0  0  0  0
    0.2223   -2.0819    4.6631 C   0  0  0  0  0  0  0  0  0  0  0  0
   -0.2991   -3.5359    2.6265 C   0  0  2  0  0  0  0  0  0  0  0  0
    0.4737   -4.6671    3.1443 N   0  0  0  0  0  0  0  0  0  0  0  0
    0.0644   -1.5361    1.2300 N   0  0  0  0  0  0  0  0  0  0  0  0
    1.7150   -3.0915    1.3397 O   0  0  0  0  0  0  0  0  0  0  0  0
   -0.4008   -1.1675    6.1189 S   0  0  0  0  0  0  0  0  0  0  0  0
    1.5831   -0.0798    0.9402 H   0  0  0  0  0  0  0  0  0  0  0  0
    0.1380    0.0754   -0.0946 H   0  0  0  0  0  0  0  0  0  0  0  0
    1.3323   -1.2098   -0.4014 H   0  0  0  0  0  0  0  0  0  0  0  0
   -1.4218    0.9903    6.0805 H   0  0  0  0  0  0  0  0  0  0  0  0
   -2.0008    0.0419    4.6984 H   0  0  0  0  0  0  0  0  0  0  0  0
   -0.3742    0.7877    4.6607 H   0  0  0  0  0  0  0  0  0  0  0  0
   -1.4823   -3.3693    4.4163 H   0  0  0  0  0  0  0  0  0  0  0  0
   -1.5564   -1.9310    3.4212 H   0  0  0  0  0  0  0  0  0  0  0  0
    0.8605   -1.4099    4.0786 H   0  0  0  0  0  0  0  0  0  0  0  0
    0.8599   -2.8767    5.0572 H   0  0  0  0  0  0  0  0  0  0  0  0
   -1.1488   -3.8662    2.0077 H   0  0  0  0  0  0  0  0  0  0  0  0
    1.3052   -4.7829    2.5648 H   0  0  0  0  0  0  0  0  0  0  0  0
   -0.0702   -5.5232    3.0956 H   0  0  0  0  0  0  0  0  0  0  0  0
   -0.8110   -1.2161    1.6184 H   0  0  0  0  0  0  0  0  0  0  0  0
  1  6  1  0  0  0  0
  1  8  1  0  0  0  0
  1  9  2  0  0  0  0
  2  8  1  0  0  0  0
  2 11  1  0  0  0  0
  2 12  1  0  0  0  0
  2 13  1  0  0  0  0
  3 10  1  0  0  0  0
  3 14  1  0  0  0  0
  3 15  1  0  0  0  0
  3 16  1  0  0  0  0
  4  5  1  0  0  0  0
  4  6  1  0  0  0  0
  4 17  1  0  0  0  0
  4 18  1  0  0  0  0
  5 10  1  0  0  0  0
  5 19  1  0  0  0  0
  5 20  1  0  0  0  0
  6  7  1  0  0  0  0
  6 21  1  0  0  0  0
  7 22  1  0  0  0  0
  7 23  1  0  0  0  0
  8 24  1  0  0  0  0
M  END
$$$$
