20
0 1 C6H10N2O2
C                    -0.019724334388    -1.608404640786    -1.508794778031
C                     1.213131055933     1.135271842358     0.148536677468
C                    -0.815783429795    -0.395637955113     0.231531492371
C                     2.515291203295     1.407396709063    -0.573829564714
C                    -0.702389320928    -0.904694493540     1.662676854424
C                    -1.925452551553     0.628917023472     0.033694750336
N                     0.906478995513    -0.734523151953    -1.381530484671
N                     0.487635042764     0.066374623450    -0.312037211137
O                     0.802001517354     1.811359579511     1.093979763602
O                    -1.070189538450    -1.539888082616    -0.654755974070
H                    -0.027943657702    -2.399137969742    -2.247574610300
H                     2.338554995068     1.597508273464    -1.636017287559
H                     3.182596678417     0.543439256179    -0.510870817202
H                     2.982125612850     2.276197472244    -0.109899274399
H                     0.091053696979    -1.653387137908     1.733742295173
H                    -1.648838859782    -1.360467691781     1.966684759200
H                    -0.469861790044    -0.071672772142     2.327880792215
H                    -1.972654872990     0.934408931650    -1.014921789016
H                    -1.727071265001     1.504599249434     0.653618523531
H                    -2.885678462364     0.190344555835     0.319242630915
