
  -OEChem-05262117483D

 24 23  0     1  0  0  0  0  0999 V2000
    0.7854   -2.9032    1.0886 C   0  0  0  0  0  0  0  0  0  0  0  0
    0.7086   -1.7230   -1.0751 C   0  0  0  0  0  0  0  0  0  0  0  0
   -3.5267   -2.3689    3.1575 C   0  0  0  0  0  0  0  0  0  0  0  0
   -0.2964   -2.4785    3.3226 C   0  0  0  0  0  0  0  0  0  0  0  0
   -0.9839   -1.1840    2.8777 C   0  0  0  0  0  0  0  0  0  0  0  0
   -0.0486   -3.5258    2.2234 C   0  0  2  0  0  0  0  0  0  0  0  0
    0.6100   -4.6882    2.8260 N   0  0  0  0  0  0  0  0  0  0  0  0
    0.0776   -2.4621    0.0106 N   0  0  0  0  0  0  0  0  0  0  0  0
    2.0139   -2.8222    1.1727 O   0  0  0  0  0  0  0  0  0  0  0  0
   -2.5631   -1.3858    1.9590 S   0  0  0  0  0  0  0  0  0  0  0  0
    0.8017   -0.6542   -0.8442 H   0  0  0  0  0  0  0  0  0  0  0  0
    0.1168   -1.8403   -1.9863 H   0  0  0  0  0  0  0  0  0  0  0  0
    1.7090   -2.1259   -1.2381 H   0  0  0  0  0  0  0  0  0  0  0  0
   -4.5363   -2.4628    2.7511 H   0  0  0  0  0  0  0  0  0  0  0  0
   -3.5814   -1.8553    4.1214 H   0  0  0  0  0  0  0  0  0  0  0  0
   -3.1068   -3.3681    3.2959 H   0  0  0  0  0  0  0  0  0  0  0  0
    0.6715   -2.2057    3.7620 H   0  0  0  0  0  0  0  0  0  0  0  0
   -0.8709   -2.9673    4.1146 H   0  0  0  0  0  0  0  0  0  0  0  0
   -0.3466   -0.6139    2.1953 H   0  0  0  0  0  0  0  0  0  0  0  0
   -1.1739   -0.5487    3.7485 H   0  0  0  0  0  0  0  0  0  0  0  0
   -1.0148   -3.8529    1.8260 H   0  0  0  0  0  0  0  0  0  0  0  0
    1.5841   -4.4311    2.9961 H   0  0  0  0  0  0  0  0  0  0  0  0
    0.6495   -5.4402    2.1382 H   0  0  0  0  0  0  0  0  0  0  0  0
   -0.9318   -2.4160    0.1090 H   0  0  0  0  0  0  0  0  0  0  0  0
  1  6  1  0  0  0  0
  1  8  1  0  0  0  0
  1  9  2  0  0  0  0
  2  8  1  0  0  0  0
  2 11  1  0  0  0  0
  2 12  1  0  0  0  0
  2 13  1  0  0  0  0
  3 10  1  0  0  0  0
  3 14  1  0  0  0  0
  3 15  1  0  0  0  0
  3 16  1  0  0  0  0
  4  5  1  0  0  0  0
  4  6  1  0  0  0  0
  4 17  1  0  0  0  0
  4 18  1  0  0  0  0
  5 10  1  0  0  0  0
  5 19  1  0  0  0  0
  5 20  1  0  0  0  0
  6  7  1  0  0  0  0
  6 21  1  0  0  0  0
  7 22  1  0  0  0  0
  7 23  1  0  0  0  0
  8 24  1  0  0  0  0
M  END
$$$$
