
  -OEChem-05262117483D

 27 29  0     0  0  0  0  0  0999 V2000
    8.3743   -4.8421   -2.9384 C   0  0  0  0  0  0  0  0  0  0  0  0
    9.1121   -5.3730   -1.8763 C   0  0  0  0  0  0  0  0  0  0  0  0
    7.0994   -4.3310   -2.7046 C   0  0  0  0  0  0  0  0  0  0  0  0
    3.1225   -1.5075    1.5932 C   0  0  0  0  0  0  0  0  0  0  0  0
    2.3741   -0.7286    2.4651 C   0  0  0  0  0  0  0  0  0  0  0  0
    8.5674   -5.4020   -0.5907 C   0  0  0  0  0  0  0  0  0  0  0  0
    0.6595   -0.5124    0.7556 C   0  0  0  0  0  0  0  0  0  0  0  0
    2.6703   -1.8153    0.2929 C   0  0  0  0  0  0  0  0  0  0  0  0
    6.5350   -4.3379   -1.4158 C   0  0  0  0  0  0  0  0  0  0  0  0
    1.1386   -0.2360    2.0344 C   0  0  0  0  0  0  0  0  0  0  0  0
    1.4232   -1.2988   -0.1119 C   0  0  0  0  0  0  0  0  0  0  0  0
    7.2872   -4.8910   -0.3653 C   0  0  0  0  0  0  0  0  0  0  0  0
    5.1856   -3.7679   -1.2484 C   0  0  0  0  0  0  0  0  0  0  0  0
    3.5618   -2.6497   -0.5160 C   0  0  0  0  0  0  0  0  0  0  0  0
    4.8025   -2.9437   -0.2148 N   0  0  0  0  0  0  0  0  0  0  0  0
    4.2436   -3.9771   -2.1479 N   0  0  0  0  0  0  0  0  0  0  0  0
    3.1556   -3.2306   -1.6643 O   0  0  0  0  0  0  0  0  0  0  0  0
    0.1740    0.7462    3.1120 Cl  0  0  0  0  0  0  0  0  0  0  0  0
    0.7585   -1.5743   -1.7036 Cl  0  0  0  0  0  0  0  0  0  0  0  0
    6.5871   -5.0529    1.4123 Br  0  0  0  0  0  0  0  0  0  0  0  0
    8.7910   -4.8212   -3.9412 H   0  0  0  0  0  0  0  0  0  0  0  0
   10.1096   -5.7705   -2.0430 H   0  0  0  0  0  0  0  0  0  0  0  0
    6.5182   -3.9078   -3.5177 H   0  0  0  0  0  0  0  0  0  0  0  0
    4.0843   -1.9035    1.9010 H   0  0  0  0  0  0  0  0  0  0  0  0
    2.7371   -0.5065    3.4629 H   0  0  0  0  0  0  0  0  0  0  0  0
    9.1274   -5.8286    0.2348 H   0  0  0  0  0  0  0  0  0  0  0  0
   -0.2966   -0.1204    0.4280 H   0  0  0  0  0  0  0  0  0  0  0  0
  1  2  1  0  0  0  0
  1  3  2  0  0  0  0
  1 21  1  0  0  0  0
  2  6  2  0  0  0  0
  2 22  1  0  0  0  0
  3  9  1  0  0  0  0
  3 23  1  0  0  0  0
  4  5  2  0  0  0  0
  4  8  1  0  0  0  0
  4 24  1  0  0  0  0
  5 10  1  0  0  0  0
  5 25  1  0  0  0  0
  6 12  1  0  0  0  0
  6 26  1  0  0  0  0
  7 10  2  0  0  0  0
  7 11  1  0  0  0  0
  7 27  1  0  0  0  0
  8 11  2  0  0  0  0
  8 14  1  0  0  0  0
  9 12  2  0  0  0  0
  9 13  1  0  0  0  0
 10 18  1  0  0  0  0
 11 19  1  0  0  0  0
 12 20  1  0  0  0  0
 13 15  1  0  0  0  0
 13 16  2  0  0  0  0
 14 15  2  0  0  0  0
 14 17  1  0  0  0  0
 16 17  1  0  0  0  0
M  END
$$$$
