25
0 1 C10F3H9O3
C                    -2.773046765563    -1.380615510815    -1.951856446450
C                    -4.094225753547    -1.815468164292    -2.076755608726
C                    -2.467192439788    -0.169111240880    -1.322142640852
C                    -5.124406086969    -1.024649076877    -1.582137575240
C                    -3.522732585595     0.604494135214    -0.818009567193
C                    -4.846634629545     0.188757050662    -0.954208477995
C                     2.378322762994     0.067418356705    -1.322196780973
C                     1.607273312827    -0.589448177169    -2.463509133564
C                     0.685313380893     1.468872950744    -2.021841037454
C                    -0.776103732833     1.504597519025    -1.597760124774
O                     1.502747499621     1.123448398897    -0.911419325159
O                     0.928576642065     0.525843272532    -3.057626696355
O                    -1.157340331245     0.185533170800    -1.168835743044
F                    -6.411112106028    -1.415331753088    -1.699275993881
F                    -3.275477502593     1.766057935613    -0.177719721115
F                    -5.839449490241     0.950287364824    -0.466799325107
H                    -1.953024446389    -1.973830329036    -2.342483045752
H                    -4.336905157627    -2.754101935665    -2.564171916090
H                     2.545259889887    -0.590386561825    -0.466231502084
H                     3.336121210936     0.479686176631    -1.666361621178
H                     2.245918042209    -1.042115300979    -3.225340639519
H                     0.883404831796    -1.322150530884    -2.089956791513
H                     0.962538796229     2.461617891256    -2.406980233127
H                    -1.385259395388     1.812595684557    -2.454395828854
H                    -0.903067109572     2.224327749600    -0.783549007474
