
  -OEChem-05262117483D

 27 29  0     0  0  0  0  0  0999 V2000
    6.8293   -6.5898   -0.4703 C   0  0  0  0  0  0  0  0  0  0  0  0
    8.1717   -6.4754   -0.8438 C   0  0  0  0  0  0  0  0  0  0  0  0
    6.0546   -5.4425   -0.3292 C   0  0  0  0  0  0  0  0  0  0  0  0
    2.1261   -2.4803    1.7937 C   0  0  0  0  0  0  0  0  0  0  0  0
    0.9394   -2.2178    2.4640 C   0  0  0  0  0  0  0  0  0  0  0  0
    8.7260   -5.2145   -1.0669 C   0  0  0  0  0  0  0  0  0  0  0  0
    0.7788   -0.0976    1.2875 C   0  0  0  0  0  0  0  0  0  0  0  0
    2.6757   -1.5739    0.8630 C   0  0  0  0  0  0  0  0  0  0  0  0
    6.5858   -4.1576   -0.5620 C   0  0  0  0  0  0  0  0  0  0  0  0
    0.2723   -1.0172    2.2030 C   0  0  0  0  0  0  0  0  0  0  0  0
    1.9754   -0.3748    0.6195 C   0  0  0  0  0  0  0  0  0  0  0  0
    7.9428   -4.0645   -0.9282 C   0  0  0  0  0  0  0  0  0  0  0  0
    5.6595   -3.0227   -0.3943 C   0  0  0  0  0  0  0  0  0  0  0  0
    3.9344   -1.9796    0.2317 C   0  0  0  0  0  0  0  0  0  0  0  0
    4.4943   -3.1580    0.3380 N   0  0  0  0  0  0  0  0  0  0  0  0
    5.8110   -1.8284   -0.9337 N   0  0  0  0  0  0  0  0  0  0  0  0
    4.6643   -1.1287   -0.5153 O   0  0  0  0  0  0  0  0  0  0  0  0
   -1.2226   -0.6582    3.0347 Cl  0  0  0  0  0  0  0  0  0  0  0  0
    2.5223    0.8262   -0.5237 Cl  0  0  0  0  0  0  0  0  0  0  0  0
    8.8338   -2.3963   -1.2205 Br  0  0  0  0  0  0  0  0  0  0  0  0
    6.3892   -7.5664   -0.2901 H   0  0  0  0  0  0  0  0  0  0  0  0
    8.7914   -7.3606   -0.9578 H   0  0  0  0  0  0  0  0  0  0  0  0
    5.0131   -5.5146   -0.0356 H   0  0  0  0  0  0  0  0  0  0  0  0
    2.6648   -3.4030    1.9797 H   0  0  0  0  0  0  0  0  0  0  0  0
    0.5362   -2.9268    3.1791 H   0  0  0  0  0  0  0  0  0  0  0  0
    9.7697   -5.1159   -1.3458 H   0  0  0  0  0  0  0  0  0  0  0  0
    0.2521    0.8285    1.0874 H   0  0  0  0  0  0  0  0  0  0  0  0
  1  2  1  0  0  0  0
  1  3  2  0  0  0  0
  1 21  1  0  0  0  0
  2  6  2  0  0  0  0
  2 22  1  0  0  0  0
  3  9  1  0  0  0  0
  3 23  1  0  0  0  0
  4  5  2  0  0  0  0
  4  8  1  0  0  0  0
  4 24  1  0  0  0  0
  5 10  1  0  0  0  0
  5 25  1  0  0  0  0
  6 12  1  0  0  0  0
  6 26  1  0  0  0  0
  7 10  2  0  0  0  0
  7 11  1  0  0  0  0
  7 27  1  0  0  0  0
  8 11  2  0  0  0  0
  8 14  1  0  0  0  0
  9 12  2  0  0  0  0
  9 13  1  0  0  0  0
 10 18  1  0  0  0  0
 11 19  1  0  0  0  0
 12 20  1  0  0  0  0
 13 15  1  0  0  0  0
 13 16  2  0  0  0  0
 14 15  2  0  0  0  0
 14 17  1  0  0  0  0
 16 17  1  0  0  0  0
M  END
$$$$
