22
0 1 C10H8O4
C                     1.631186169505    -0.297986540173     0.502894163973
C                     2.645448175083    -0.560366841382     1.424232693691
C                     0.313525543209    -0.122413966174     0.946325007581
C                     2.305537697398    -0.639579065833     2.776706221770
C                    -0.051765638778    -0.197955552903     2.301649250336
C                     0.983080719991    -0.463097619391     3.217940831784
C                     3.135658331741    -0.897813432933     3.958771278662
C                    -1.488656717025     0.008318173617     2.637249039880
C                     2.148839032966    -0.848303999402     5.131527272319
C                    -3.117356282817     0.107588352228     4.336805899857
O                     4.335161926184    -1.108908932236     4.043770997847
O                    -2.348758378373     0.238243290356     1.802443917197
O                     0.844672758923    -0.575908844852     4.565914919502
O                    -1.739154613848    -0.085608415855     3.957814335761
H                     1.854416670644    -0.228480849253    -0.557323315697
H                     3.678433840944    -0.702354596319     1.118425290060
H                    -0.481184473110     0.082092398422     0.235284194895
H                     2.108763172777    -1.802651105950     5.663305304311
H                     2.400963101942    -0.048548421257     5.833120890642
H                    -3.133387796375     0.008501216014     5.421822692702
H                    -3.750261677884    -0.650391124641     3.869414573622
H                    -3.460580828037     1.099189370363     4.033024387676
