21   
torsion grid (-165,)
C        1.7671153435   -1.1187040326   -0.1871936709
C        2.9035304248   -1.4828994464    0.5398989491
C        0.5849068119   -0.7571962184    0.4648163039
C        1.6864650617   -1.0801069192    2.6327764038
C        2.8345585011   -1.4588934673    1.9267025634
C        0.5686650352   -0.7525914440    1.8536897320
C        1.6443365537   -1.0589975885    4.1275106543
C        3.2521724337    1.4334830428    3.9591253975
O        2.2597649516    0.4407252890    6.2694619921
O        0.6329897565    1.4229571016    4.5473742750
F        3.9239662095   -1.8311958470    2.6388715682
F       -0.5778299628   -0.4392068135    2.4916725640
F        4.3163913963    0.6178568749    3.9557306335
F        2.9083662553    1.7171855694    2.6968849466
F        3.5598162572    2.5635308067    4.5979084359
S        1.8047746334    0.6182272955    4.8901078324
H        1.8001136309   -1.1258350220   -1.2724422714
H        3.8263978876   -1.7828073012    0.0549131141
H       -0.3131929857   -0.4867986288   -0.0802934546
H        2.4243445017   -1.6663718990    4.5849718207
H        0.6567561759   -1.3541319611    4.4925971667
21   
torsion grid (-150,)
C        1.8597478675   -1.1049329402   -0.1545673403
C        2.9452685231   -1.5495951016    0.6049598546
C        0.6832441578   -0.6687154304    0.4614998948
C        1.6845150148   -1.0936692292    2.6604021032
C        2.8309153825   -1.5351964329    1.9888996938
C        0.6215677481   -0.6771900804    1.8487085569
C        1.5903415236   -1.1030905553    4.1525910859
C        3.0771962040    1.4732150518    3.8568621374
O        2.5916535460    0.2873165594    6.2352843556
O        0.6271243727    1.3077388231    4.9419113658
F        3.8693071622   -1.9797542267    2.7334966514
F       -0.5139821193   -0.2734756301    2.4560038352
F        4.1473265972    0.7122779384    3.5839011020
F        2.4833534613    1.8296629258    2.7117655863
F        3.4677215241    2.5680066662    4.5115287895
S        1.8661936248    0.5315819396    4.9880826135
H        1.9291457250   -1.1036388627   -1.2381086269
H        3.8630722600   -1.9027286725    0.1469505618
H       -0.1736218486   -0.3280117227   -0.1099576239
H        2.3099173671   -1.7791554467    4.6121731819
H        0.5711128147   -1.3300017306    4.4747953212
21   
torsion grid (-135,)
C        1.9385731478   -1.1551338070   -0.1572177567
C        2.9812658503   -1.6315535251    0.6423997221
C        0.7685418217   -0.6488865435    0.4165043396
C        1.6833992582   -1.0823952809    2.6504750200
C        2.8292783796   -1.5831626159    2.0218479306
C        0.6690260971   -0.6248304607    1.8009440865
C        1.5345104793   -1.0762184117    4.1375798806
C        2.9521276713    1.5527682015    3.7595783615
O        2.9336418045    0.1856852602    6.0820060158
O        0.7525313426    1.2632229130    5.2715315274
F        3.8283570442   -2.0447462738    2.8075222413
F       -0.4547600959   -0.1381962280    2.3706905660
F        4.0128834609    0.8717552707    3.3028133441
F        2.1740957115    1.9085251725    2.7293062256
F        3.3713043504    2.6486737315    4.3940444534
S        1.9788258815    0.5051831006    5.0198095182
H        2.0381184598   -1.1794676605   -1.2381368373
H        3.8959665944   -2.0312687257    0.2177384502
H       -0.0527113472   -0.2752655380   -0.1857936935
H        2.1647822506   -1.8256696172    4.6150936232
H        0.4868767844   -1.1939216210    4.4205328928
21   
torsion grid (-120,)
C        2.0313096472   -1.1843524809   -0.1432686961
C        3.0241509534   -1.6964478997    0.6971314145
C        0.8654633325   -0.6204169395    0.3828859298
C        1.6802237989   -1.0719248884    2.6520855695
C        2.8255788296   -1.6270579932    2.0693715877
C        0.7193353976   -0.5767608412    1.7628249587
C        1.4761508615   -1.0484897239    4.1312818640
C        2.8124494485    1.6248869571    3.7416088253
O        3.2707722917    0.0321305989    5.8563925975
O        0.9706875013    1.1451685759    5.6451514381
F        3.7776194356   -2.1135254461    2.8958994011
F       -0.4007328640   -0.0317131656    2.2874968365
F        3.8252453576    1.0509988901    3.0781048566
F        1.8571389102    1.9852777173    2.8734062024
F        3.2601178403    2.7077079081    4.3789042421
S        2.1124651460    0.4405084331    5.0603158063
H        2.1678728128   -1.2247154918   -1.2196421986
H        3.9362462175   -2.1370999478    0.3088998567
H        0.0835368464   -0.2174019662   -0.2518999749
H        2.0057591658   -1.8669003479    4.6207201774
H        0.4180431120   -1.0587742744    4.3943720529
21   
torsion grid (-105,)
C        2.3156881457   -1.0271510995   -0.1882522374
C        3.3633718197   -1.5441392819    0.5788333706
C        1.1277959802   -0.6014058169    0.4134466527
C        2.0227847779   -1.2295285791    2.6091693297
C        3.1923967637   -1.6324833341    1.9541193061
C        1.0103297183   -0.7111655873    1.7924323962
C        1.8798771848   -1.3136439358    4.0930886198
C        1.0468265292   -4.1088116044    3.3854833619
O       -0.4362280000   -2.4702140300    4.9105209506
O        1.7731214727   -3.3480539518    5.8701923527
F        4.2013283704   -2.1241158353    2.7084067839
F       -0.1296099188   -0.3016321678    2.3888329254
F        2.3145878416   -4.3277288601    3.0072119773
F        0.5321174462   -5.2357898761    3.8797850039
F        0.3271304210   -3.7220036743    2.3247232327
S        0.9825986036   -2.7983780057    4.7680167180
H        2.4266557817   -0.9531408363   -1.2657911637
H        4.2950722198   -1.8751050180    0.1325201740
H        0.3040086129   -0.1946954150   -0.1634251848
H        1.2580550227   -0.5021030042    4.4779660370
H        2.8386644639   -1.3257486603    4.6105875731
21   
torsion grid (-90,)
C        2.2615111935   -0.9841274045   -0.2070773546
C        3.3011775366   -1.5666307184    0.5227310211
C        1.1126600994   -0.5108737171    0.4332508994
C        2.0219405740   -1.2411376849    2.5910555598
C        3.1584582987   -1.6780551157    1.8996850486
C        1.0214510130   -0.6447431795    1.8124952081
C        1.8983636703   -1.3787679779    4.0731555838
C        1.1724876382   -4.1929552284    3.4247644332
O       -0.5624385961   -2.4443821519    4.4910299130
O        1.3903490560   -3.2435003422    5.9471766612
F        4.1679171844   -2.2226108015    2.6173560132
F       -0.0728607730   -0.1726411187    2.4445594174
F        2.4914599986   -4.3857438890    3.2765184499
F        0.6141598091   -5.3008085340    3.9149397799
F        0.6298035062   -3.9126085187    2.2336592665
S        0.8487323329   -2.7855947169    4.6672862722
H        2.3503475285   -0.8914240121   -1.2852274970
H        4.2069000487   -1.9279715827    0.0474067479
H        0.2995532292   -0.0451266514   -0.1133682579
H        1.3653939900   -0.5305455055    4.5116713424
H        2.8556049334   -1.5057305132    4.5776511766
21   
torsion grid (-75,)
C        2.1795356172   -0.8879430530   -0.2361411948
C        3.1789818152   -1.5879893002    0.4453828668
C        1.0939958025   -0.3376133531    0.4508065355
C        1.9835071713   -1.2250616669    2.5573638315
C        3.0575155915   -1.7368418501    1.8203838044
C        1.0230462736   -0.5128556144    1.8270706450
C        1.8740596377   -1.4034579148    4.0356597608
C        1.3300007932   -4.2907577499    3.6345981263
O       -0.6067356631   -2.4917575712    4.0940780391
O        1.0268062799   -3.0194748509    6.0004982969
F        4.0240936763   -2.4056583457    2.4924785747
F       -0.0023449401    0.0445805070    2.5035116862
F        2.6366279313   -4.4955818317    3.8504847311
F        0.6347933356   -5.3379050713    4.0819338815
F        1.1160536688   -4.1449634732    2.3204237699
S        0.7436336438   -2.7536205928    4.5898880676
H        2.2511371016   -0.7640508202   -1.3124401769
H        4.0358841469   -2.0133998870   -0.0660445464
H        0.3147511942    0.2205566369   -0.0571912903
H        1.3915476113   -0.5414609068    4.5063343283
H        2.8233958880   -1.5872356936    4.5388487186
21   
torsion grid (-60,)
C        2.1478911242   -0.7891819282   -0.2565553091
C        3.1007176442   -1.5973331092    0.3706036630
C        1.1192205074   -0.1912284685    0.4767343518
C        1.9770628839   -1.2394542021    2.5210913777
C        2.9917842170   -1.8010086193    1.7393290290
C        1.0588327946   -0.4270278026    1.8442871189
C        1.8739616228   -1.4771592771    3.9909711890
C        1.4642259815   -4.3844819637    3.7899523480
O       -0.5695641807   -2.6235015677    3.7241244945
O        0.7154782287   -2.9190586134    5.9268586227
F        3.9093803361   -2.5794779021    2.3617927249
F        0.0884785563    0.1698669453    2.5684006079
F        2.7118053782   -4.5139422470    4.2636462545
F        0.7246858779   -5.4187495958    4.1929062708
F        1.4989139747   -4.3576483654    2.4510399428
S        0.6763443450   -2.7934939814    4.4695126813
H        2.2106063912   -0.6201242680   -1.3272563932
H        3.9108011349   -2.0652627628   -0.1785746015
H        0.3757069462    0.4464358156    0.0104740475
H        1.4452151304   -0.6154864777    4.5107590466
H        2.8175986842   -1.7384208010    4.4712208346
21   
torsion grid (-45,)
C        1.8466887565   -0.8021778431   -0.2410509638
C        2.7991574211   -1.5946161714    0.4063950549
C        0.8597905555   -0.1277273561    0.4837062456
C        1.7622563082   -1.0610171985    2.5635525358
C        2.7329411684   -1.7036859862    1.7888018967
C        0.8409638206   -0.2721685531    1.8646274784
C        1.6976144544   -1.2093939056    4.0467735415
C        1.3423015424   -4.1006239847    4.3397349323
O       -0.6958810653   -2.4581685974    3.6900781638
O        0.2988430056   -2.3058413166    6.0528568906
F        3.6535404690   -2.4623220107    2.4323125388
F       -0.0912312042    0.3920824485    2.5815998665
F        2.5396857096   -4.0726653314    4.9456309051
F        0.5985956123   -5.0728769579    4.8683700420
F        1.5153457876   -4.3309227156    3.0319336365
S        0.4449094705   -2.4459145922    4.6034225150
H        1.8765170840   -0.7060468169   -1.3221520519
H        3.5769701152   -2.1202566882   -0.1372237995
H        0.1164144636    0.4969403223   -0.0000184304
H        1.3446426829   -0.3024118712    4.5441284024
H        2.6459161770   -1.5182842159    4.4881323670
21   
torsion grid (-30,)
C        1.7654500372   -0.7166747206   -0.1939655319
C        2.7080287597   -1.5621216464    0.3985141011
C        0.8143249877   -0.0457060596    0.5804538744
C        1.7390129812   -1.0850727346    2.5994164167
C        2.6703929670   -1.7259883680    1.7769167609
C        0.8231472523   -0.2469464961    1.9538514121
C        1.6982971516   -1.2949893439    4.0752328398
C        1.3128351920   -4.1381907752    4.6342130665
O       -0.6282538670   -2.6203986579    3.5301803109
O        0.0267756458   -2.2004819091    5.9785059259
F        3.5824937771   -2.5373641286    2.3663910479
F       -0.0803424885    0.4023748478    2.7212896189
F        2.4047483465   -4.0186433667    5.4077450790
F        0.5088388672   -5.0722659337    5.1416984209
F        1.6887531103   -4.4907031473    3.3984145502
S        0.3739068195   -2.4870124937    4.5857260289
H        1.7738009282   -0.5774125940   -1.2707470532
H        3.4570058035   -2.0873084705   -0.1846091795
H        0.0763854334    0.6160313010    0.1396632857
H        1.4207704927   -0.3947681658    4.6278622753
H        2.6376125187   -1.6922266719    4.4618036149
21   
torsion grid (-15,)
C        1.7613683369   -0.6125316187   -0.1815033863
C        2.6840103487   -1.5197893953    0.3472671515
C        0.8490459364    0.0501269636    0.6452614406
C        1.7813187518   -1.1148068244    2.5903974891
C        2.6681315815   -1.7508405180    1.7166954822
C        0.8792969105   -0.2193550102    2.0062348329
C        1.7661992982   -1.3924889636    4.0551107529
C        1.2967206174   -4.1414485638    4.9053160398
O       -0.4770705898   -2.8043691690    3.3724746221
O       -0.1665837010   -2.0822158515    5.8178048499
F        3.5575786214   -2.6275950141    2.2436279412
F        0.0060908943    0.4094898700    2.8256472264
F        2.2296806026   -3.9196264989    5.8468560827
F        0.4270880462   -5.0494936663    5.3457257587
F        1.8979263940   -4.5912734467    3.7955980915
S        0.3701488290   -2.5267842762    4.5309824668
H        1.7528388215   -0.4202329437   -1.2500879060
H        3.3999711217   -2.0427968455   -0.2778013999
H        0.1233594999    0.7545736350    0.2530459072
H        1.5726706803   -0.5053485622    4.6607569842
H        2.6879309897   -1.8747426964    4.3828348605
21   
torsion grid (0,)
C        1.7329347850   -0.4918922512   -0.2265551896
C        2.5754369525   -1.5053468401    0.2399109109
C        0.9032928609    0.2135633393    0.6500039130
C        1.7640011430   -1.1180035639    2.5204634795
C        2.5656906471   -1.7962489090    1.5973625736
C        0.9354183779   -0.1204535629    1.9970954362
C        1.7575680919   -1.4653453606    3.9699584055
C        1.3607559496   -4.1171206530    5.1103833026
O       -0.2073065279   -3.1702375864    3.1292424142
O       -0.4139138723   -2.1294554118    5.4671300347
F        3.3728859957   -2.7782034212    2.0653948655
F        0.1316045191    0.5427995747    2.8605610730
F        2.0844498141   -3.6820580084    6.1565135572
F        0.5049514550   -5.0527264390    5.5187041257
F        2.1906721936   -4.6318651998    4.1935183858
S        0.3872071093   -2.6664669073    4.3666784793
H        1.7206207198   -0.2513479308   -1.2852728102
H        3.2231511646   -2.0664596098   -0.4252054706
H        0.2382460798    0.9988448509    0.3067749836
H        1.5436197077   -0.6121920913    4.6144717769
H        2.6903258183   -1.9413058079    4.2757001468
21   
torsion grid (15,)
C        1.7121212208   -0.3989513151   -0.2429683407
C        2.4742365316   -1.5014777448    0.1552664875
C        0.9731291824    0.3380545420    0.6867593363
C        1.7592577752   -1.1446143058    2.4728254003
C        2.4743901191   -1.8494415487    1.4988058330
C        1.0095490380   -0.0551628928    2.0184998200
C        1.7637451782   -1.5649618288    3.9035664150
C        1.3704215786   -4.0781634241    5.2950209826
O        0.1322398630   -3.5370231095    2.9646198598
O       -0.6032302383   -2.2546012285    5.0608033477
F        3.2070089134   -2.9116629537    1.9049409103
F        0.2947876474    0.6446441416    2.9300122329
F        1.8612170010   -3.4481991869    6.3772255729
F        0.5329846517   -5.0391877395    5.6799447865
F        2.3887162934   -4.6134779556    4.6077497386
S        0.4364308125   -2.8325940101    4.2093817483
H        1.6930667222   -0.1118233681   -1.2899272588
H        3.0514719488   -2.0877326965   -0.5517164331
H        0.3743418865    1.1948915597    0.3967916093
H        1.5261533497   -0.7501108286    4.5871756788
H        2.7084517513   -2.0314977922    4.1878657587
21   
torsion grid (30,)
C        2.0840738875   -1.1250922259   -0.1183772633
C        2.9769992792   -1.7581547134    0.7513788169
C        1.0019969671   -0.3888840568    0.3722823447
C        1.6909913158   -0.9215681705    2.6629459183
C        2.7576928565   -1.6451671972    2.1175917959
C        0.8285743554   -0.3078886545    1.7482138266
C        1.4695286754   -0.8469367155    4.1370688499
C        1.0551228895   -2.4959718295    6.4652351430
O        0.8545645865   -3.4868016493    3.9655195134
O       -0.9661003806   -1.8784188049    4.7808621763
F        3.6188295087   -2.2394982176    2.9733377482
F       -0.2128517162    0.4028185880    2.2378364907
F        0.8996277107   -1.3382289411    7.1315795924
F        0.3542881500   -3.4550215324    7.0661538982
F        2.3562799763   -2.8207802381    6.4624435913
S        0.4355105093   -2.2843072216    4.6837550241
H        2.2340411193   -1.2054121851   -1.1907711004
H        3.8229404067   -2.3328489766    0.3896486014
H        0.2998798078    0.1110383491   -0.2864282628
H        0.9085376295    0.0384044895    4.4359840652
H        2.4053997721   -0.9119905629    4.6947888726
21   
torsion grid (45,)
C        1.9925217383   -1.0608739007   -0.1296839006
C        2.9186242788   -1.7292888026    0.6763502807
C        0.9412685376   -0.3306590326    0.4317963589
C        1.7259897281   -0.9494427954    2.6699464259
C        2.7632174125   -1.6604743778    2.0546711457
C        0.8313437443   -0.2938786353    1.8161133548
C        1.5662325886   -0.9227996731    4.1551516117
C        0.8398221560   -2.3519930245    6.5391129551
O        1.0879050391   -3.5883840658    4.1508223854
O       -0.8988285760   -2.0101206033    4.4950113835
F        3.6608068676   -2.2847405327    2.8483869720
F       -0.1723392020    0.4178148723    2.3751220924
F        0.5202930526   -1.1507944960    7.0510574388
F        0.0994016340   -3.2954372031    7.1168611209
F        2.1393029527   -2.5896302214    6.7750139290
S        0.5128540389   -2.3482771041    4.6690409155
H        2.0932743098   -1.1070134619   -1.2098052045
H        3.7430629061   -2.2965406113    0.2576610740
H        0.2165486314    0.1986678319   -0.1776473126
H        1.0466526779   -0.0301184419    4.5041272982
H        2.5182721952   -1.0457987371    4.6740678478
21   
torsion grid (60,)
C        1.8965584412   -1.0171344192   -0.1477624691
C        2.8494997079   -1.7277140264    0.5875116489
C        0.8862744849   -0.2942443140    0.4929420409
C        1.7664830183   -1.0093114782    2.6658112470
C        2.7620899776   -1.7092114554    1.9737691565
C        0.8431219229   -0.3079128779    1.8813198279
C        1.6761919963   -1.0346705181    4.1580963205
C        0.6424302452   -2.2499972660    6.5445866366
O        1.3023887270   -3.7094215854    4.3656373878
O       -0.7649596402   -2.2050242526    4.2365702353
F        3.6877815029   -2.3759940624    2.6974446744
F       -0.1161076215    0.4023159498    2.5141556075
F        0.1471220295   -1.0466046588    6.8771520986
F       -0.0934177368   -3.2075160028    7.1050043492
F        1.9073476789   -2.3340147481    6.9883687623
S        0.6127930704   -2.4538377827    4.6571751579
H        1.9442056100   -1.0234190894   -1.2325213621
H        3.6447996158   -2.2891265424    0.1088722097
H        0.1418062523    0.2685357761   -0.0600643458
H        1.1947168951   -0.1407631105    4.5565075486
H        2.6465814237   -1.2049079815    4.6259505229
21   
torsion grid (75,)
C        1.8162898537   -0.9364578521   -0.1371871775
C        2.7937851757   -1.6889402075    0.5200101026
C        0.8546737084   -0.2203788238    0.5815403948
C        1.8382930077   -1.0254800567    2.6774018217
C        2.7808427951   -1.7180484830    1.9088207371
C        0.8862684999   -0.2833739149    1.9685155502
C        1.8242525159   -1.0996247662    4.1706808793
C        0.4895298254   -2.0871575960    6.5157921781
O        1.5112045646   -3.7549445821    4.6468402588
O       -0.5610907837   -2.3763316503    4.0450342583
F        3.7267790807   -2.4324492598    2.5583750343
F       -0.0241743488    0.4190191097    2.6779198607
F       -0.1558098066   -0.9162506698    6.6284342074
F       -0.2234858736   -3.0499512639    7.0962833907
F        1.6846750905   -1.9822693966    7.1224386041
S        0.7475940606   -2.5087358983    4.6829638230
H        1.8057856299   -0.9050794790   -1.2224849664
H        3.5512137907   -2.2468708616   -0.0201883770
H        0.0913197660    0.3726880191    0.0892581767
H        1.3898683905   -0.2036153080    4.6165190300
H        2.8107180973   -1.3151420029    4.5811491013
21   
torsion grid (90,)
C        1.7338259824   -0.8727211216   -0.1237173403
C        2.7345395367   -1.6576321419    0.4560257572
C        0.8144817846   -0.1782444793    0.6682132289
C        1.8958684541   -1.0645247454    2.6814160255
C        2.7890120387   -1.7383594514    1.8417597091
C        0.9143716627   -0.2938690484    2.0479942632
C        1.9549979528   -1.1875654600    4.1685258584
C        0.3221347145   -1.9527169595    6.4203152502
O        1.6785187238   -3.7782082091    4.9600404845
O       -0.3408693205   -2.6154620636    3.8933454995
F        3.7525764592   -2.4931820989    2.4177632192
F        0.0412779405    0.3801188290    2.8298718624
F       -0.3818206150   -0.8194497458    6.2838227602
F       -0.4268103414   -2.8774022488    7.0172037881
F        1.4092316205   -1.6992654833    7.1701925729
S        0.8671573304   -2.5860908634    4.7163175205
H        1.6701629684   -0.8005538697   -1.2052382741
H        3.4577474814   -2.2024263050   -0.1414529588
H        0.0314301436    0.4359551846    0.2365619755
H        1.5767677597   -0.2901676085    4.6606546294
H        2.9522605349   -1.4442794566    4.5249266191
21   
torsion grid (105,)
C        2.2647233885   -1.1240703733   -0.0332767734
C        3.1323523664   -1.6644229953    0.9201168701
C        1.0847616512   -0.4797954914    0.3508612238
C        1.6282172046   -0.9098939138    2.7023073657
C        2.7907698303   -1.5498065895    2.2615218128
C        0.7938817944   -0.3942226145    1.7051704899
C        1.2698048985   -0.8223983822    4.1474222646
C       -1.1576193483   -1.4194961436    5.6236788522
O        0.9522250409   -3.0974108156    5.6118145401
O       -0.4228727294   -2.8480935979    3.4605239613
F        3.6163886398   -2.0742288851    3.1970483897
F       -0.3434291344    0.2248277817    2.0978199270
F       -0.6147497294   -0.7042520163    6.6248874627
F       -1.8433049635   -0.5920101340    4.8234540457
F       -1.9772579797   -2.3405074475    6.1269670809
S        0.2217127843   -2.2795095109    4.6435409444
H        2.5097348517   -1.2075958392   -1.0877425842
H        4.0505879681   -2.1704858842    0.6416491155
H        0.3969935432   -0.0580223696   -0.3742641574
H        0.6832185856    0.0715239506    4.3652145638
H        2.1399559176   -0.8786417145    4.8011607984
21   
torsion grid (120,)
C        1.5474495744   -0.7632951769   -0.0453269516
C        2.4788600626   -1.6998248989    0.4129476916
C        0.8180071094    0.0235471865    0.8508463281
C        1.9638693450   -1.0644810993    2.7246971683
C        2.6588862822   -1.8300095898    1.7830357003
C        1.0396579058   -0.1501380641    2.2105873096
C        2.1696720411   -1.2476999901    4.1888985811
C        0.0323452655   -1.8894577669    6.0640943526
O        2.1179098360   -3.5316298909    5.6558166796
O        0.3852286165   -3.2785222399    3.7771604631
F        3.5476529766   -2.7371399887    2.2497866577
F        0.3376711242    0.6026168013    3.0919272546
F       -0.7979020639   -1.0631389955    5.4142575007
F       -0.6696623279   -2.8316499021    6.6915946073
F        0.7364675091   -1.1800121912    6.9634433668
S        1.2218116612   -2.7155743387    4.8360204599
H        1.3861958145   -0.6471939785   -1.1127680564
H        3.0496908073   -2.3240882731   -0.2661724516
H        0.0890672654    0.7529772450    0.5141571609
H        1.8313820453   -0.3813218594    4.7590443809
H        3.2008416100   -1.4778438037    4.4608157996
21   
torsion grid (135,)
C        1.4431932048   -0.7442222923    0.0356025999
C        2.3441177805   -1.7316725785    0.4455363484
C        0.8128254338    0.0856287229    0.9673293764
C        1.9909288671   -1.0706025085    2.7800494771
C        2.5925632601   -1.8720259302    1.8037509089
C        1.0994894882   -0.0998664799    2.3135351738
C        2.2666165539   -1.2722041370    4.2298079519
C       -0.0786499525   -1.8899722615    5.8553178030
O        2.1870188502   -3.3263303805    5.9761991095
O        0.7400233264   -3.5135497445    3.8614479554
F        3.4630561029   -2.8181508693    2.2223046009
F        0.4985752593    0.7001401124    3.2277385270
F       -0.8686075714   -1.2453394893    4.9866854295
F       -0.7826025421   -2.8209868453    6.4981172116
F        0.4097029825   -1.0054838188    6.7411951100
S        1.3528373849   -2.7295014969    4.9321638173
H        1.2303049062   -0.6195903977   -1.0217931626
H        2.8418746390   -2.3860840568   -0.2620695208
H        0.1130481353    0.8588577530    0.6685434360
H        1.9818452641   -0.4088781414    4.8332202338
H        3.3063491654   -1.5219280756    4.4516894443
21   
torsion grid (150,)
C        1.9299286578   -1.1076849807    0.0316503965
C        2.7550114728   -1.8809390411    0.8536955832
C        0.9887004215   -0.2306187223    0.5786144285
C        1.6808848886   -0.9084859654    2.8309130526
C        2.6107465606   -1.7641945870    2.2295579235
C        0.8873475294   -0.1539994021    1.9612666650
C        1.5376913883   -0.8290187110    4.3123595043
C       -1.2309293120   -1.5498780161    4.9149042280
O        0.8437994898   -2.2925731745    6.4526781085
O        0.5939805728   -3.3833951266    4.1402069002
F        3.4112483488   -2.4910273286    3.0397413450
F       -0.0150936606    0.6974962729    2.5070203738
F       -1.2969854037   -0.3377526005    5.4897779378
F       -1.6099347221   -1.4496637527    3.6346690803
F       -2.0418819682   -2.3910582428    5.5566416964
S        0.5447086984   -2.2187440974    5.0217856950
H        2.0235316697   -1.1869678228   -1.0471844734
H        3.4937604177   -2.5638860807    0.4480023100
H        0.3437485526    0.3821523372   -0.0421689556
H        1.0545415109    0.0906871729    4.6452172552
H        2.4843846789   -0.9372285811    4.8473465044
21   
torsion grid (165,)
C        1.8942887829   -1.0136598784   -0.1709807726
C        2.7478151516   -1.8350113409    0.5710621627
C        0.9933416656   -0.1538061262    0.4641320150
C        1.7815205601   -0.9532718993    2.6447321661
C        2.6730204393   -1.7853475933    1.9569483745
C        0.9601369522   -0.1453925499    1.8518778593
C        1.7176967833   -0.9401551663    4.1359535911
C       -1.0753445753   -1.7621542612    4.4868925936
O        0.8532528232   -2.2614126360    6.3002812434
O        0.9115578905   -3.5354492342    4.0713312238
F        3.5107205879   -2.5531248876    2.6865294479
F        0.0962217437    0.6868187572    2.4825526711
F       -1.2716285419   -0.5187420880    4.9508726647
F       -1.3151196427   -1.7852737033    3.1694784283
F       -1.9053801224   -2.6038988500    5.1040709691
S        0.7087754893   -2.3119559992    4.8448081644
H        1.9344575060   -1.0405129300   -1.2556878087
H        3.4590115689   -2.5030676560    0.0970318638
H        0.3274392232    0.4966289920   -0.0929235865
H        1.3062574648   -0.0172232201    4.5460412014
H        2.6923454363   -1.1361321408    4.5907292277
21   
torsion grid (180,)
C        1.6841426174   -1.1898006918   -0.2490603927
C        2.8736895891   -1.4001489839    0.4543431952
C        0.4895901587   -0.9235177554    0.4257089650
C        1.6782972637   -1.0463464074    2.5676996277
C        2.8400756461   -1.3243219158    1.8399639544
C        0.5127025016   -0.8615684278    1.8132768644
C        1.6645199044   -0.9690752136    4.0604205552
C        3.4345373479    1.3979355536    4.1096724563
O        1.8873284422    0.6442949549    6.1892764071
O        0.7540605609    1.5812887420    4.0855310451
F        3.9849616869   -1.5283519462    2.5348595263
F       -0.6418567299   -0.6386767341    2.4761074371
F        4.4196547187    0.5730072276    4.4904987743
F        3.4343528656    1.5014459207    2.7741713523
F        3.6301450926    2.6033659762    4.6465540879
S        1.7617338338    0.7445040261    4.7349496267
H        1.6874054403   -1.2390231296   -1.3337116980
H        3.8104387598   -1.6155995127   -0.0485392693
H       -0.4461466827   -0.7679512205   -0.1006178648
H        2.4673244476   -1.5314180999    4.5372303481
H        0.6928193492   -1.2834538530    4.4512879745
