57
-1 1 C25H25N2O5
C                     2.936208636400     8.996242471846     5.955699076380
C                     0.717211437013     8.565173869350     6.819596044309
C                    -2.249087813701     6.322334992911    -1.155256711853
C                     2.856970868565     7.851653692095     5.178109228727
C                     0.629256395401     7.410211078395     6.040142344560
C                    -1.900317380186     5.837161084561     0.102662543205
C                     0.779277790660     6.045159389026    -3.130515750565
C                     0.390884091641     5.384242776204    -0.625548609439
C                    -0.104084103696     6.575804780700    -4.056099710292
C                     1.315854047050    12.091164710158     9.020664709216
C                     0.054783525827     5.876281472962    -1.906988584987
C                     1.864927045524     9.369913794101     6.792680546177
C                    -1.274421159530     6.334297128426    -2.161628589968
C                     1.703564313702     7.044377108760     5.213483338816
C                    -0.591509777497     5.369919478433     0.360463170204
C                     2.571527055976    12.393080920298     8.589630826037
C                     1.971614881017    10.576643403899     7.600346979656
C                    -2.717937372409     7.221069538155    -5.639161535864
C                     3.760275456994    14.442521385678     7.720749511501
C                    -2.558491897247     8.874720116354    -3.728544911921
C                     3.452532550673    13.553097612912     8.937054963935
C                     0.858492221780     3.946415652265     3.432545866099
C                     0.579159797420     5.074922683665     4.413297402013
C                     0.903105003952     4.408536167103     1.980396095277
C                    -2.537485641650     7.378794658206    -4.080013228442
N                     2.973896986601    11.413770878981     7.682062704448
N                    -1.346500101640     6.741361400670    -3.484155762732
O                    -1.677146644322     7.130405426731    -6.344840116498
O                    -3.924613365973     7.277419730157    -5.986202231955
O                     0.913734745336    10.927189269290     8.397730901961
O                     1.729074766963     5.938142331223     4.424557605126
O                    -0.386461725941     4.902449071955     1.656452497444
H                     3.823540322939     9.620855951068     5.927264860820
H                    -0.118392674465     8.844381788896     7.453973086490
H                    -3.257452530857     6.680179545563    -1.341792578216
H                     3.673671325425     7.557223762539     4.525620646710
H                    -0.273587771813     6.812440441274     6.077687001982
H                    -2.627231180813     5.806758028146     0.909625747796
H                     1.816312096108     5.794904696757    -3.318569334210
H                     1.398712101395     5.031195580098    -0.432637533548
H                     0.004393991218     6.830937364997    -5.101295351814
H                     0.612392454340    12.542968698312     9.703566010423
H                     4.231013559207    13.854912527950     6.927819959534
H                     4.437297027879    15.258367321886     7.996409625939
H                     2.842077747482    14.880028910638     7.315075610044
H                    -1.713705815024     9.381105717478    -4.207772699377
H                    -2.490938923152     9.037905985378    -2.645711758252
H                    -3.486522301428     9.317199134205    -4.101634975344
H                     2.973781610094    14.143264227521     9.726352666870
H                     4.392420900668    13.168628413798     9.351521785052
H                     1.810101910493     3.468866653051     3.692537768302
H                     0.067881889482     3.195322464274     3.540886168560
H                    -0.305582752030     5.638635205627     4.099194965685
H                     0.415115973385     4.679780853354     5.424559962368
H                     1.166584030512     3.564454393288     1.327078911709
H                     1.662183566012     5.191322466171     1.848703033173
H                    -3.402818711861     6.890827747246    -3.626428453139
