
  -OEChem-05262117483D

 49 53  0     0  0  0  0  0  0999 V2000
   -2.0294    4.7243    2.8851 C   0  0  0  0  0  0  0  0  0  0  0  0
    1.6296   -1.2255   -0.2259 C   0  0  0  0  0  0  0  0  0  0  0  0
   -2.3417    3.3841    2.6617 C   0  0  0  0  0  0  0  0  0  0  0  0
    0.5259   -0.6802    0.4285 C   0  0  0  0  0  0  0  0  0  0  0  0
   -1.5487    5.1494    4.1295 C   0  0  0  0  0  0  0  0  0  0  0  0
    3.7187   -3.0555   -1.4244 C   0  0  0  0  0  0  0  0  0  0  0  0
    1.7212   -0.9889    2.5141 C   0  0  0  0  0  0  0  0  0  0  0  0
    5.2179   -1.6250   -0.2410 C   0  0  0  0  0  0  0  0  0  0  0  0
   -1.6770    2.8507    4.9253 C   0  0  0  0  0  0  0  0  0  0  0  0
    4.7981   -3.4189   -2.2309 C   0  0  0  0  0  0  0  0  0  0  0  0
    2.7881   -1.6533    0.4439 C   0  0  0  0  0  0  0  0  0  0  0  0
    3.9204   -2.1307   -0.3904 C   0  0  0  0  0  0  0  0  0  0  0  0
    2.8299   -1.5549    1.8602 C   0  0  0  0  0  0  0  0  0  0  0  0
   -2.1720    2.4344    3.6835 C   0  0  0  0  0  0  0  0  0  0  0  0
    0.5888   -0.5531    1.8239 C   0  0  0  0  0  0  0  0  0  0  0  0
   -1.3807    4.1992    5.1348 C   0  0  0  0  0  0  0  0  0  0  0  0
    6.2414   -2.0498   -1.0912 C   0  0  0  0  0  0  0  0  0  0  0  0
    3.9242   -2.0366    2.7103 C   0  0  0  0  0  0  0  0  0  0  0  0
   -1.6992    0.4221    2.2336 C   0  0  0  0  0  0  0  0  0  0  0  0
   -2.9263    0.0541    4.5077 C   0  0  0  0  0  0  0  0  0  0  0  0
   -3.9401    0.5442    3.4946 C   0  0  0  0  0  0  0  0  0  0  0  0
   -2.5039    0.9969    3.4000 C   0  0  0  0  0  0  0  0  0  0  0  0
    7.6571   -1.5617   -0.9010 C   0  0  0  0  0  0  0  0  0  0  0  0
    5.1286   -2.3156    4.4476 N   0  5  0  0  0  0  0  0  0  0  0  0
    6.0389   -2.9369   -2.0871 N   0  0  0  0  0  0  0  0  0  0  0  0
    4.0700   -1.6310    3.9934 N   0  0  0  0  0  0  0  0  0  0  0  0
    4.8540   -2.9539    2.3720 N   0  0  0  0  0  0  0  0  0  0  0  0
    5.5947   -3.1109    3.4802 N   0  0  0  0  0  0  0  0  0  0  0  0
   -0.4581    0.0013    2.6063 N   0  0  0  0  0  0  0  0  0  0  0  0
   -2.1510    0.3915    1.0877 O   0  0  0  0  0  0  0  0  0  0  0  0
   -0.7743    4.7075    6.7087 Cl  0  0  0  0  0  0  0  0  0  0  0  0
   -2.1583    5.4519    2.0879 H   0  0  0  0  0  0  0  0  0  0  0  0
    1.6075   -1.2911   -1.3108 H   0  0  0  0  0  0  0  0  0  0  0  0
   -2.7084    3.0554    1.6935 H   0  0  0  0  0  0  0  0  0  0  0  0
   -0.3494   -0.3534   -0.1158 H   0  0  0  0  0  0  0  0  0  0  0  0
   -1.3055    6.1912    4.3128 H   0  0  0  0  0  0  0  0  0  0  0  0
    2.7422   -3.5050   -1.5840 H   0  0  0  0  0  0  0  0  0  0  0  0
    1.7740   -0.9158    3.5977 H   0  0  0  0  0  0  0  0  0  0  0  0
    5.4348   -0.9179    0.5519 H   0  0  0  0  0  0  0  0  0  0  0  0
   -1.5148    2.1352    5.7247 H   0  0  0  0  0  0  0  0  0  0  0  0
    4.6570   -4.1415   -3.0357 H   0  0  0  0  0  0  0  0  0  0  0  0
   -2.9942    0.4387    5.5212 H   0  0  0  0  0  0  0  0  0  0  0  0
   -2.6005   -0.9800    4.4401 H   0  0  0  0  0  0  0  0  0  0  0  0
   -4.2861   -0.1436    2.7296 H   0  0  0  0  0  0  0  0  0  0  0  0
   -4.6692    1.2782    3.8247 H   0  0  0  0  0  0  0  0  0  0  0  0
    8.2296   -2.3006   -0.3276 H   0  0  0  0  0  0  0  0  0  0  0  0
    8.1509   -1.4330   -1.8685 H   0  0  0  0  0  0  0  0  0  0  0  0
    7.6878   -0.6184   -0.3483 H   0  0  0  0  0  0  0  0  0  0  0  0
   -0.2466    0.0851    3.5935 H   0  0  0  0  0  0  0  0  0  0  0  0
  1  3  1  0  0  0  0
  1  5  2  0  0  0  0
  1 32  1  0  0  0  0
  2  4  2  0  0  0  0
  2 11  1  0  0  0  0
  2 33  1  0  0  0  0
  3 14  2  0  0  0  0
  3 34  1  0  0  0  0
  4 15  1  0  0  0  0
  4 35  1  0  0  0  0
  5 16  1  0  0  0  0
  5 36  1  0  0  0  0
  6 10  2  0  0  0  0
  6 12  1  0  0  0  0
  6 37  1  0  0  0  0
  7 13  1  0  0  0  0
  7 15  2  0  0  0  0
  7 38  1  0  0  0  0
  8 12  2  0  0  0  0
  8 17  1  0  0  0  0
  8 39  1  0  0  0  0
  9 14  1  0  0  0  0
  9 16  2  0  0  0  0
  9 40  1  0  0  0  0
 10 25  1  0  0  0  0
 10 41  1  0  0  0  0
 11 12  1  0  0  0  0
 11 13  2  0  0  0  0
 13 18  1  0  0  0  0
 14 22  1  0  0  0  0
 15 29  1  0  0  0  0
 16 31  1  0  0  0  0
 17 23  1  0  0  0  0
 17 25  2  0  0  0  0
 18 26  2  0  0  0  0
 18 27  1  0  0  0  0
 19 22  1  0  0  0  0
 19 29  1  0  0  0  0
 19 30  2  0  0  0  0
 20 21  1  0  0  0  0
 20 22  1  0  0  0  0
 20 42  1  0  0  0  0
 20 43  1  0  0  0  0
 21 22  1  0  0  0  0
 21 44  1  0  0  0  0
 21 45  1  0  0  0  0
 23 46  1  0  0  0  0
 23 47  1  0  0  0  0
 23 48  1  0  0  0  0
 24 26  1  0  0  0  0
 24 28  1  0  0  0  0
 27 28  2  0  0  0  0
 29 49  1  0  0  0  0
M  CHG  1  24  -1
M  END
$$$$
