
  -OEChem-05262117483D

 49 52  0     1  0  0  0  0  0999 V2000
    3.3568   -5.6724    2.3522 C   0  0  0  0  0  0  0  0  0  0  0  0
    4.1085   -5.5041    3.5168 C   0  0  0  0  0  0  0  0  0  0  0  0
    3.5973   -4.8716    1.2333 C   0  0  0  0  0  0  0  0  0  0  0  0
    7.1905    0.3531    1.5079 C   0  0  0  0  0  0  0  0  0  0  0  0
    5.3597   -3.7490    2.4296 C   0  0  0  0  0  0  0  0  0  0  0  0
    5.7932    2.1478    3.1732 C   0  0  0  0  0  0  0  0  0  0  0  0
    6.5671   -3.1207    5.2085 C   0  0  0  0  0  0  0  0  0  0  0  0
    6.2030   -5.2252    5.8029 C   0  0  0  0  0  0  0  0  0  0  0  0
    5.7912    0.2008    1.6871 C   0  0  0  0  0  0  0  0  0  0  0  0
    5.1234   -4.5341    3.5707 C   0  0  0  0  0  0  0  0  0  0  0  0
    5.9157   -4.3171    4.7888 C   0  0  0  0  0  0  0  0  0  0  0  0
    4.6063   -3.9007    1.2652 C   0  0  0  0  0  0  0  0  0  0  0  0
    5.0819    1.1067    2.5186 C   0  0  0  0  0  0  0  0  0  0  0  0
    7.8653    1.3681    2.1477 C   0  0  0  0  0  0  0  0  0  0  0  0
    7.1539    2.2732    2.9940 C   0  0  0  0  0  0  0  0  0  0  0  0
    4.9941   -0.8433    1.1001 C   0  0  0  0  0  0  0  0  0  0  0  0
    3.1102    0.0270    2.0985 C   0  0  0  0  0  0  0  0  0  0  0  0
    1.6224   -0.1099    2.2826 C   0  0  0  0  0  0  0  0  0  0  0  0
    5.7066   -3.8431   -1.0092 C   0  0  0  0  0  0  0  0  0  0  0  0
    7.3470    4.1737    4.4415 C   0  0  0  0  0  0  0  0  0  0  0  0
    4.8796   -3.0615    0.0196 C   0  0  2  0  0  0  0  0  0  0  0  0
    7.1976   -3.2710    6.3745 N   0  0  0  0  0  0  0  0  0  0  0  0
    3.7299    1.0145    2.7200 N   0  0  0  0  0  0  0  0  0  0  0  0
    3.6858   -0.9146    1.3024 N   0  0  0  0  0  0  0  0  0  0  0  0
    6.9638   -4.5601    6.7147 N   0  0  0  0  0  0  0  0  0  0  0  0
    5.5709   -1.8054    0.3082 N   0  0  0  0  0  0  0  0  0  0  0  0
    9.2134    1.5211    1.9774 O   0  0  0  0  0  0  0  0  0  0  0  0
    7.9588    3.2259    3.5639 O   0  0  0  0  0  0  0  0  0  0  0  0
    2.5640   -6.4160    2.3251 H   0  0  0  0  0  0  0  0  0  0  0  0
    3.8847   -6.1030    4.3959 H   0  0  0  0  0  0  0  0  0  0  0  0
    2.9883   -4.9903    0.3392 H   0  0  0  0  0  0  0  0  0  0  0  0
    7.7697   -0.2998    0.8614 H   0  0  0  0  0  0  0  0  0  0  0  0
    6.1465   -3.0015    2.4658 H   0  0  0  0  0  0  0  0  0  0  0  0
    5.2242    2.8197    3.8049 H   0  0  0  0  0  0  0  0  0  0  0  0
    6.5763   -2.1550    4.7177 H   0  0  0  0  0  0  0  0  0  0  0  0
    5.9478   -6.2692    5.9242 H   0  0  0  0  0  0  0  0  0  0  0  0
    1.1162   -0.0528    1.3130 H   0  0  0  0  0  0  0  0  0  0  0  0
    1.3881   -1.0911    2.7086 H   0  0  0  0  0  0  0  0  0  0  0  0
    1.2448    0.6751    2.9391 H   0  0  0  0  0  0  0  0  0  0  0  0
    6.6901   -4.1042   -0.6001 H   0  0  0  0  0  0  0  0  0  0  0  0
    5.2034   -4.7772   -1.2703 H   0  0  0  0  0  0  0  0  0  0  0  0
    5.8475   -3.2520   -1.9196 H   0  0  0  0  0  0  0  0  0  0  0  0
    8.1502    4.8253    4.7864 H   0  0  0  0  0  0  0  0  0  0  0  0
    6.8861    3.6688    5.2975 H   0  0  0  0  0  0  0  0  0  0  0  0
    6.5931    4.7649    3.9102 H   0  0  0  0  0  0  0  0  0  0  0  0
    3.9146   -2.7990   -0.4210 H   0  0  0  0  0  0  0  0  0  0  0  0
    7.3585   -4.9196    7.5730 H   0  0  0  0  0  0  0  0  0  0  0  0
    6.5792   -1.8662    0.3443 H   0  0  0  0  0  0  0  0  0  0  0  0
    9.4902    2.2838    2.5160 H   0  0  0  0  0  0  0  0  0  0  0  0
  1  2  1  0  0  0  0
  1  3  2  0  0  0  0
  1 29  1  0  0  0  0
  2 10  2  0  0  0  0
  2 30  1  0  0  0  0
  3 12  1  0  0  0  0
  3 31  1  0  0  0  0
  4  9  1  0  0  0  0
  4 14  2  0  0  0  0
  4 32  1  0  0  0  0
  5 10  1  0  0  0  0
  5 12  2  0  0  0  0
  5 33  1  0  0  0  0
  6 13  1  0  0  0  0
  6 15  2  0  0  0  0
  6 34  1  0  0  0  0
  7 11  1  0  0  0  0
  7 22  2  0  0  0  0
  7 35  1  0  0  0  0
  8 11  2  0  0  0  0
  8 25  1  0  0  0  0
  8 36  1  0  0  0  0
  9 13  2  0  0  0  0
  9 16  1  0  0  0  0
 10 11  1  0  0  0  0
 12 21  1  0  0  0  0
 13 23  1  0  0  0  0
 14 15  1  0  0  0  0
 14 27  1  0  0  0  0
 15 28  1  0  0  0  0
 16 24  2  0  0  0  0
 16 26  1  0  0  0  0
 17 18  1  0  0  0  0
 17 23  2  0  0  0  0
 17 24  1  0  0  0  0
 18 37  1  0  0  0  0
 18 38  1  0  0  0  0
 18 39  1  0  0  0  0
 19 21  1  0  0  0  0
 19 40  1  0  0  0  0
 19 41  1  0  0  0  0
 19 42  1  0  0  0  0
 20 28  1  0  0  0  0
 20 43  1  0  0  0  0
 20 44  1  0  0  0  0
 20 45  1  0  0  0  0
 21 26  1  0  0  0  0
 21 46  1  0  0  0  0
 22 25  1  0  0  0  0
 25 47  1  0  0  0  0
 26 48  1  0  0  0  0
 27 49  1  0  0  0  0
M  END
$$$$
