
  -OEChem-05262117483D

 49 53  0     0  0  0  0  0  0999 V2000
   -2.9556   -1.8075    4.8550 C   0  0  0  0  0  0  0  0  0  0  0  0
    2.3832    0.0104   -0.3857 C   0  0  0  0  0  0  0  0  0  0  0  0
   -2.9162   -0.7910    3.8983 C   0  0  0  0  0  0  0  0  0  0  0  0
    1.3250    0.5658    0.3327 C   0  0  0  0  0  0  0  0  0  0  0  0
   -2.3777   -1.6213    6.1146 C   0  0  0  0  0  0  0  0  0  0  0  0
    4.1318   -1.5596   -2.2893 C   0  0  0  0  0  0  0  0  0  0  0  0
    1.3005   -1.4483    1.6800 C   0  0  0  0  0  0  0  0  0  0  0  0
    5.2853   -2.1385   -0.2825 C   0  0  0  0  0  0  0  0  0  0  0  0
   -1.7011    0.6186    5.4409 C   0  0  0  0  0  0  0  0  0  0  0  0
    5.2934   -1.9008   -2.9836 C   0  0  0  0  0  0  0  0  0  0  0  0
    2.9275   -1.2536   -0.1028 C   0  0  0  0  0  0  0  0  0  0  0  0
    4.1113   -1.6785   -0.8926 C   0  0  0  0  0  0  0  0  0  0  0  0
    2.3556   -2.0195    0.9477 C   0  0  0  0  0  0  0  0  0  0  0  0
   -2.2857    0.4313    4.1802 C   0  0  0  0  0  0  0  0  0  0  0  0
    0.7878   -0.1820    1.3907 C   0  0  0  0  0  0  0  0  0  0  0  0
   -1.7608   -0.4005    6.3912 C   0  0  0  0  0  0  0  0  0  0  0  0
    6.4011   -2.4635   -1.0569 C   0  0  0  0  0  0  0  0  0  0  0  0
    2.7474   -3.3870    1.3087 C   0  0  0  0  0  0  0  0  0  0  0  0
   -1.0571    1.3781    2.0958 C   0  0  0  0  0  0  0  0  0  0  0  0
   -3.4540    2.1121    2.5784 C   0  0  0  0  0  0  0  0  0  0  0  0
   -2.5597    2.9210    3.4745 C   0  0  0  0  0  0  0  0  0  0  0  0
   -2.1738    1.4923    3.1267 C   0  0  0  0  0  0  0  0  0  0  0  0
    7.6509   -3.0194   -0.4184 C   0  0  0  0  0  0  0  0  0  0  0  0
    2.4230   -3.9374    2.5019 N   0  5  0  0  0  0  0  0  0  0  0  0
    6.4151   -2.3418   -2.4005 N   0  0  0  0  0  0  0  0  0  0  0  0
    3.3959   -4.2663    0.5174 N   0  0  0  0  0  0  0  0  0  0  0  0
    2.8991   -5.1887    2.4391 N   0  0  0  0  0  0  0  0  0  0  0  0
    3.4763   -5.3879    1.2507 N   0  0  0  0  0  0  0  0  0  0  0  0
   -0.2789    0.2661    2.2133 N   0  0  0  0  0  0  0  0  0  0  0  0
   -0.9151    2.2503    1.2336 O   0  0  0  0  0  0  0  0  0  0  0  0
   -1.0318   -0.1429    7.9722 Cl  0  0  0  0  0  0  0  0  0  0  0  0
   -3.4283   -2.7574    4.6211 H   0  0  0  0  0  0  0  0  0  0  0  0
    2.8332    0.5989   -1.1814 H   0  0  0  0  0  0  0  0  0  0  0  0
   -3.3606   -0.9451    2.9185 H   0  0  0  0  0  0  0  0  0  0  0  0
    0.9324    1.5448    0.0954 H   0  0  0  0  0  0  0  0  0  0  0  0
   -2.3965   -2.4080    6.8618 H   0  0  0  0  0  0  0  0  0  0  0  0
    3.2492   -1.2300   -2.8308 H   0  0  0  0  0  0  0  0  0  0  0  0
    0.8780   -2.0467    2.4836 H   0  0  0  0  0  0  0  0  0  0  0  0
    5.3215   -2.2644    0.7939 H   0  0  0  0  0  0  0  0  0  0  0  0
   -1.1960    1.5514    5.6717 H   0  0  0  0  0  0  0  0  0  0  0  0
    5.3215   -1.8181   -4.0708 H   0  0  0  0  0  0  0  0  0  0  0  0
   -4.3881    1.7382    2.9873 H   0  0  0  0  0  0  0  0  0  0  0  0
   -3.4522    2.3536    1.5208 H   0  0  0  0  0  0  0  0  0  0  0  0
   -1.9643    3.7002    3.0108 H   0  0  0  0  0  0  0  0  0  0  0  0
   -2.8888    3.1064    4.4925 H   0  0  0  0  0  0  0  0  0  0  0  0
    7.6637   -4.1112   -0.5187 H   0  0  0  0  0  0  0  0  0  0  0  0
    8.5426   -2.6276   -0.9166 H   0  0  0  0  0  0  0  0  0  0  0  0
    7.6974   -2.7842    0.6486 H   0  0  0  0  0  0  0  0  0  0  0  0
   -0.5155   -0.3717    2.9631 H   0  0  0  0  0  0  0  0  0  0  0  0
  1  3  1  0  0  0  0
  1  5  2  0  0  0  0
  1 32  1  0  0  0  0
  2  4  2  0  0  0  0
  2 11  1  0  0  0  0
  2 33  1  0  0  0  0
  3 14  2  0  0  0  0
  3 34  1  0  0  0  0
  4 15  1  0  0  0  0
  4 35  1  0  0  0  0
  5 16  1  0  0  0  0
  5 36  1  0  0  0  0
  6 10  2  0  0  0  0
  6 12  1  0  0  0  0
  6 37  1  0  0  0  0
  7 13  1  0  0  0  0
  7 15  2  0  0  0  0
  7 38  1  0  0  0  0
  8 12  2  0  0  0  0
  8 17  1  0  0  0  0
  8 39  1  0  0  0  0
  9 14  1  0  0  0  0
  9 16  2  0  0  0  0
  9 40  1  0  0  0  0
 10 25  1  0  0  0  0
 10 41  1  0  0  0  0
 11 12  1  0  0  0  0
 11 13  2  0  0  0  0
 13 18  1  0  0  0  0
 14 22  1  0  0  0  0
 15 29  1  0  0  0  0
 16 31  1  0  0  0  0
 17 23  1  0  0  0  0
 17 25  2  0  0  0  0
 18 24  1  0  0  0  0
 18 26  2  0  0  0  0
 19 22  1  0  0  0  0
 19 29  1  0  0  0  0
 19 30  2  0  0  0  0
 20 21  1  0  0  0  0
 20 22  1  0  0  0  0
 20 42  1  0  0  0  0
 20 43  1  0  0  0  0
 21 22  1  0  0  0  0
 21 44  1  0  0  0  0
 21 45  1  0  0  0  0
 23 46  1  0  0  0  0
 23 47  1  0  0  0  0
 23 48  1  0  0  0  0
 24 27  1  0  0  0  0
 26 28  1  0  0  0  0
 27 28  2  0  0  0  0
 29 49  1  0  0  0  0
M  CHG  1  24  -1
M  END
$$$$
