40
0 1 C14H15N5O4S2
C                     8.693984773068     1.752197498565     5.359646635327
C                     6.580475775021    -3.123856902052     5.979072045301
C                     5.281808266043    -2.622208458276     6.133505233300
C                     7.254065679321    -2.990742125995     4.756717668716
C                     4.624927846559    -1.982687792440     5.075355709376
C                     6.744234869967     1.977126139956     2.337701712691
C                     7.721673989380     1.685824896572     4.319676512925
C                     6.613137269811    -2.348011196027     3.701512089910
C                     5.315092369571    -1.852285017837     3.873600069019
C                     5.969495387733     1.211806393080     3.184085582001
C                     7.106145398052    -2.019761117011     2.308904592692
C                     5.800032064088    -1.626959953922     1.584033177969
C                    11.046784366672     1.258796577956     2.977011247403
C                     9.890388034653     1.170522204356     0.772070989730
N                     9.499361710762     1.766390184816     6.200107503494
N                     6.574940835403     1.033619217984     4.399499206789
N                     7.871121693042     2.289948369609     3.069737467166
N                     4.837867110392    -1.237205994299     2.661864892608
N                    10.319061882724     1.985437921112     1.920238647873
O                     3.480635458964     0.561842531411     3.831864068792
O                     4.151191870779     0.844261842236     1.376755088979
O                     8.721766354374     3.804227048117     1.220864097141
O                     9.842056496676     3.875139630737     3.527263310912
S                     4.434432332341     0.410233408723     2.744070646080
S                     9.278104977118     3.169665074376     2.398909433980
H                     7.068161142538    -3.622481209197     6.812209778219
H                     4.772082202026    -2.733177490865     7.086556342526
H                     8.262314977636    -3.381121086238     4.639166962819
H                     3.625002262347    -1.579342889847     5.186472467075
H                     6.582840583307     2.341879402724     1.334595143722
H                     7.819343443971    -1.184883634636     2.344284592524
H                     7.603221327386    -2.860233775246     1.816881707749
H                     5.903706759252    -0.823325692035     0.855393942129
H                     5.365351694835    -2.490696866912     1.074280104747
H                    11.329005119625     1.943869225552     3.774117658596
H                    11.952421176655     0.849202547597     2.524269626025
H                    10.447835479449     0.438140870704     3.390703024994
H                     9.465891834282     1.811530112159     0.000775196988
H                     9.161060646185     0.404078363374     1.067916732913
H                    10.778234435990     0.678573181968     0.369435925447
