
  -OEChem-05262117483D

 57 60  0     1  0  0  0  0  0999 V2000
    2.9362    8.9962    5.9557 C   0  0  0  0  0  0  0  0  0  0  0  0
    0.7172    8.5652    6.8196 C   0  0  0  0  0  0  0  0  0  0  0  0
   -2.2491    6.3223   -1.1553 C   0  0  0  0  0  0  0  0  0  0  0  0
    2.8570    7.8517    5.1781 C   0  0  0  0  0  0  0  0  0  0  0  0
    0.6293    7.4102    6.0401 C   0  0  0  0  0  0  0  0  0  0  0  0
   -1.9003    5.8372    0.1027 C   0  0  0  0  0  0  0  0  0  0  0  0
    0.7793    6.0452   -3.1305 C   0  0  0  0  0  0  0  0  0  0  0  0
    0.3909    5.3842   -0.6255 C   0  0  0  0  0  0  0  0  0  0  0  0
   -0.1041    6.5758   -4.0561 C   0  0  0  0  0  0  0  0  0  0  0  0
    1.3159   12.0912    9.0207 C   0  0  0  0  0  0  0  0  0  0  0  0
    0.0548    5.8763   -1.9070 C   0  0  0  0  0  0  0  0  0  0  0  0
    1.8649    9.3699    6.7927 C   0  0  0  0  0  0  0  0  0  0  0  0
   -1.2744    6.3343   -2.1616 C   0  0  0  0  0  0  0  0  0  0  0  0
    1.7036    7.0444    5.2135 C   0  0  0  0  0  0  0  0  0  0  0  0
   -0.5915    5.3699    0.3605 C   0  0  0  0  0  0  0  0  0  0  0  0
    2.5715   12.3931    8.5896 C   0  0  0  0  0  0  0  0  0  0  0  0
    1.9716   10.5766    7.6003 C   0  0  0  0  0  0  0  0  0  0  0  0
   -2.7179    7.2211   -5.6392 C   0  0  0  0  0  0  0  0  0  0  0  0
    3.7603   14.4425    7.7207 C   0  0  0  0  0  0  0  0  0  0  0  0
   -2.5585    8.8747   -3.7285 C   0  0  0  0  0  0  0  0  0  0  0  0
    3.4525   13.5531    8.9371 C   0  0  0  0  0  0  0  0  0  0  0  0
    0.8585    3.9464    3.4325 C   0  0  0  0  0  0  0  0  0  0  0  0
    0.5792    5.0749    4.4133 C   0  0  0  0  0  0  0  0  0  0  0  0
    0.9031    4.4085    1.9804 C   0  0  0  0  0  0  0  0  0  0  0  0
   -2.5375    7.3788   -4.0800 C   0  0  2  0  0  0  0  0  0  0  0  0
    2.9739   11.4138    7.6821 N   0  0  0  0  0  0  0  0  0  0  0  0
   -1.3465    6.7414   -3.4842 N   0  0  0  0  0  0  0  0  0  0  0  0
   -1.6771    7.1304   -6.3448 O   0  5  0  0  0  0  0  0  0  0  0  0
   -3.9246    7.2774   -5.9862 O   0  0  0  0  0  0  0  0  0  0  0  0
    0.9137   10.9272    8.3977 O   0  0  0  0  0  0  0  0  0  0  0  0
    1.7291    5.9381    4.4246 O   0  0  0  0  0  0  0  0  0  0  0  0
   -0.3865    4.9024    1.6565 O   0  0  0  0  0  0  0  0  0  0  0  0
    3.8235    9.6209    5.9273 H   0  0  0  0  0  0  0  0  0  0  0  0
   -0.1184    8.8444    7.4540 H   0  0  0  0  0  0  0  0  0  0  0  0
   -3.2575    6.6802   -1.3418 H   0  0  0  0  0  0  0  0  0  0  0  0
    3.6737    7.5572    4.5256 H   0  0  0  0  0  0  0  0  0  0  0  0
   -0.2736    6.8124    6.0777 H   0  0  0  0  0  0  0  0  0  0  0  0
   -2.6272    5.8068    0.9096 H   0  0  0  0  0  0  0  0  0  0  0  0
    1.8163    5.7949   -3.3186 H   0  0  0  0  0  0  0  0  0  0  0  0
    1.3987    5.0312   -0.4326 H   0  0  0  0  0  0  0  0  0  0  0  0
    0.0044    6.8309   -5.1013 H   0  0  0  0  0  0  0  0  0  0  0  0
    0.6124   12.5430    9.7036 H   0  0  0  0  0  0  0  0  0  0  0  0
    4.2310   13.8549    6.9278 H   0  0  0  0  0  0  0  0  0  0  0  0
    4.4373   15.2584    7.9964 H   0  0  0  0  0  0  0  0  0  0  0  0
    2.8421   14.8800    7.3151 H   0  0  0  0  0  0  0  0  0  0  0  0
   -1.7137    9.3811   -4.2078 H   0  0  0  0  0  0  0  0  0  0  0  0
   -2.4909    9.0379   -2.6457 H   0  0  0  0  0  0  0  0  0  0  0  0
   -3.4865    9.3172   -4.1016 H   0  0  0  0  0  0  0  0  0  0  0  0
    2.9738   14.1433    9.7264 H   0  0  0  0  0  0  0  0  0  0  0  0
    4.3924   13.1686    9.3515 H   0  0  0  0  0  0  0  0  0  0  0  0
    1.8101    3.4689    3.6925 H   0  0  0  0  0  0  0  0  0  0  0  0
    0.0679    3.1953    3.5409 H   0  0  0  0  0  0  0  0  0  0  0  0
   -0.3056    5.6386    4.0992 H   0  0  0  0  0  0  0  0  0  0  0  0
    0.4151    4.6798    5.4246 H   0  0  0  0  0  0  0  0  0  0  0  0
    1.1666    3.5645    1.3271 H   0  0  0  0  0  0  0  0  0  0  0  0
    1.6622    5.1913    1.8487 H   0  0  0  0  0  0  0  0  0  0  0  0
   -3.4028    6.8908   -3.6264 H   0  0  0  0  0  0  0  0  0  0  0  0
  1  4  1  0  0  0  0
  1 12  2  0  0  0  0
  1 33  1  0  0  0  0
  2  5  2  0  0  0  0
  2 12  1  0  0  0  0
  2 34  1  0  0  0  0
  3  6  2  0  0  0  0
  3 13  1  0  0  0  0
  3 35  1  0  0  0  0
  4 14  2  0  0  0  0
  4 36  1  0  0  0  0
  5 14  1  0  0  0  0
  5 37  1  0  0  0  0
  6 15  1  0  0  0  0
  6 38  1  0  0  0  0
  7  9  2  0  0  0  0
  7 11  1  0  0  0  0
  7 39  1  0  0  0  0
  8 11  1  0  0  0  0
  8 15  2  0  0  0  0
  8 40  1  0  0  0  0
  9 27  1  0  0  0  0
  9 41  1  0  0  0  0
 10 16  2  0  0  0  0
 10 30  1  0  0  0  0
 10 42  1  0  0  0  0
 11 13  2  0  0  0  0
 12 17  1  0  0  0  0
 13 27  1  0  0  0  0
 14 31  1  0  0  0  0
 15 32  1  0  0  0  0
 16 21  1  0  0  0  0
 16 26  1  0  0  0  0
 17 26  2  0  0  0  0
 17 30  1  0  0  0  0
 18 25  1  0  0  0  0
 18 28  1  0  0  0  0
 18 29  2  0  0  0  0
 19 21  1  0  0  0  0
 19 43  1  0  0  0  0
 19 44  1  0  0  0  0
 19 45  1  0  0  0  0
 20 25  1  0  0  0  0
 20 46  1  0  0  0  0
 20 47  1  0  0  0  0
 20 48  1  0  0  0  0
 21 49  1  0  0  0  0
 21 50  1  0  0  0  0
 22 23  1  0  0  0  0
 22 24  1  0  0  0  0
 22 51  1  0  0  0  0
 22 52  1  0  0  0  0
 23 31  1  0  0  0  0
 23 53  1  0  0  0  0
 23 54  1  0  0  0  0
 24 32  1  0  0  0  0
 24 55  1  0  0  0  0
 24 56  1  0  0  0  0
 25 27  1  0  0  0  0
 25 57  1  0  0  0  0
M  CHG  1  28  -1
M  END
$$$$
