50
0 1 C23ClH19N6O
C                    -4.032537650478    -1.794416732837     4.140501739692
C                     2.546291510276    -0.120590776055     0.246189658773
C                    -3.720462269789    -0.773557374430     3.239401454810
C                     1.341151871616     0.405122535846     0.708854432372
C                    -3.638095799906    -1.706344250926     5.479021891329
C                     4.377457261430    -3.149412197790    -0.401327223973
C                     1.178366108190    -1.461073354919     2.238716226128
C                     5.479745964506    -1.064051088098    -0.001592706985
C                    -2.607193367137     0.447551509505     5.005776695662
C                     5.556396389163    -3.583693953725    -1.006247738433
C                     3.093323445790    -1.311819261323     0.743256099960
C                     4.329818554007    -1.852115194286     0.124885800551
C                     2.394563836018    -1.973845034870     1.776038127846
C                    -3.007133019671     0.357895671171     3.664107278150
C                     0.637041920404    -0.280359922458     1.712181599445
C                    -2.927090870726    -0.578864886961     5.895527880952
C                     6.622747567173    -1.585512535196    -0.621693442332
C                     2.930096491447    -3.171644329438     2.444323723831
C                    -1.323460122770     1.272856636523     1.922461276826
C                    -3.720739198807     2.143554637590     1.907929356232
C                    -2.991605473322     2.877730088365     2.991911967471
C                    -2.621642942466     1.429344953013     2.687652449515
C                     7.886539953714    -0.772749855298    -0.756004545184
N                     6.660121395607    -2.834350564266    -1.120801205776
N                     4.249794444713    -3.367671872800     2.751401242728
N                     2.165178358324    -4.178321347008     2.884172640985
N                     4.325584935235    -4.510811844724     3.386665222956
N                     3.075896343758    -4.967406019074     3.452042178027
N                    -0.596257105631     0.149921751191     2.240553100770
O                    -0.969211974860     2.103909480024     1.087421347632
Cl                   -2.424205935604    -0.448664120466     7.572883502647
H                    -4.587192373128    -2.666334847215     3.804661338562
H                     3.066975209752     0.394631555310    -0.556152870959
H                    -4.029288396569    -0.847840620086     2.200159406164
H                     0.939332925595     1.321224560726     0.299183274435
H                    -3.878891560662    -2.492985785895     6.186896044085
H                     3.512528106893    -3.804776958491    -0.353556359834
H                     0.662453015353    -1.984717933183     3.039808548240
H                     5.495861633116    -0.056762468675     0.405391236158
H                    -2.050751348459     1.314026835184     5.350280706708
H                     5.615731860313    -4.587270506143    -1.426125968041
H                    -4.738042248228     1.819066124816     2.103190164150
H                    -3.486730977169     2.403762602848     0.881387169052
H                    -2.270360134308     3.629575940978     2.690545276114
H                    -3.509956019893     3.057365023516     3.928648014114
H                     8.705233302532    -1.259759108968    -0.216300338178
H                     8.184932753815    -0.709881734675    -1.807182164650
H                     7.763009301915     0.239711222646    -0.362784310787
H                     2.843250843398    -5.851268091730     3.891746158835
H                    -0.998294464254    -0.454335757142     2.946910187131
