40
0 1 C14H15N5O4S2
C                     9.303102308405     1.753788697395    -0.136984225657
C                     6.805794562894    -3.203750955464     3.580711182876
C                     5.881108833857    -3.125720833525     2.534053832187
C                     7.040200196617    -2.087593882973     4.397693035009
C                     5.181343454003    -1.939967834816     2.269493490207
C                     6.099408758085     0.157202181839    -0.539005253871
C                     7.959028997578     1.286203655258    -0.060591330382
C                     6.361533318532    -0.901471772576     4.138481547481
C                     5.452858629186    -0.832605915113     3.073943769811
C                     5.919500391778     1.005941149033     0.532099454230
C                     6.370411467473     0.410356823432     4.889619890163
C                     5.675570113316     1.383004354330     3.913874000238
C                     6.635442142158     0.986622307266    -4.021154646501
C                     8.920952614716     1.841940338924    -3.508209978519
N                    10.388852990665     2.168064586082    -0.207686142829
N                     7.067132189203     1.693514868047     0.827594405841
N                     7.409926994901     0.339711607598    -0.924483138834
N                     4.883822663860     0.479864509351     3.008605968562
N                     8.003219697424     0.688127836347    -3.560947922213
O                     4.126669878214     2.529309922538     1.763730513697
O                     3.490085659054     0.213621156294     0.887377523869
O                     9.530844648526    -0.609091759115    -2.022666929619
O                     7.214714924205    -1.520363248036    -2.635893817044
S                     4.437716003936     1.126917092012     1.522773597313
S                     8.137626179177    -0.435745528893    -2.367234621851
H                     7.337208341045    -4.132918333924     3.766210015367
H                     5.692956987296    -3.998193573246     1.914144214482
H                     7.746954329931    -2.147321807819     5.221982136490
H                     4.442793443397    -1.889764374790     1.478022641680
H                     5.443558477294    -0.547824642975    -1.025984609029
H                     5.797687565623     0.314941383295     5.819263633949
H                     7.375256208951     0.752847452779     5.150523268361
H                     4.998761996642     2.085789161138     4.396982492893
H                     6.413023081355     1.940409290321     3.330810626580
H                     6.074914362111     0.060392910096    -4.138392476373
H                     6.718287141701     1.471370206795    -4.995978656808
H                     6.112063036225     1.659615521927    -3.329584560025
H                     9.901926981862     1.522481692580    -3.161804093994
H                     8.537075168018     2.634629221096    -2.854831092888
H                     9.013005149555     2.229053736017    -4.525319026284
