
  -OEChem-05262117483D

 40 42  0     1  0  0  0  0  0999 V2000
    8.6940    1.7522    5.3596 C   0  0  0  0  0  0  0  0  0  0  0  0
    6.5805   -3.1239    5.9791 C   0  0  0  0  0  0  0  0  0  0  0  0
    5.2818   -2.6222    6.1335 C   0  0  0  0  0  0  0  0  0  0  0  0
    7.2541   -2.9907    4.7567 C   0  0  0  0  0  0  0  0  0  0  0  0
    4.6249   -1.9827    5.0754 C   0  0  0  0  0  0  0  0  0  0  0  0
    6.7442    1.9771    2.3377 C   0  0  0  0  0  0  0  0  0  0  0  0
    7.7217    1.6858    4.3197 C   0  0  0  0  0  0  0  0  0  0  0  0
    6.6131   -2.3480    3.7015 C   0  0  0  0  0  0  0  0  0  0  0  0
    5.3151   -1.8523    3.8736 C   0  0  0  0  0  0  0  0  0  0  0  0
    5.9695    1.2118    3.1841 C   0  0  0  0  0  0  0  0  0  0  0  0
    7.1061   -2.0198    2.3089 C   0  0  0  0  0  0  0  0  0  0  0  0
    5.8000   -1.6270    1.5840 C   0  0  0  0  0  0  0  0  0  0  0  0
   11.0468    1.2588    2.9770 C   0  0  0  0  0  0  0  0  0  0  0  0
    9.8904    1.1705    0.7721 C   0  0  0  0  0  0  0  0  0  0  0  0
    9.4994    1.7664    6.2001 N   0  0  0  0  0  0  0  0  0  0  0  0
    6.5749    1.0336    4.3995 N   0  0  0  0  0  0  0  0  0  0  0  0
    7.8711    2.2899    3.0697 N   0  0  0  0  0  0  0  0  0  0  0  0
    4.8379   -1.2372    2.6619 N   0  0  2  0  0  0  0  0  0  0  0  0
   10.3191    1.9854    1.9202 N   0  0  0  0  0  0  0  0  0  0  0  0
    3.4806    0.5618    3.8319 O   0  0  0  0  0  0  0  0  0  0  0  0
    4.1512    0.8443    1.3768 O   0  0  0  0  0  0  0  0  0  0  0  0
    8.7218    3.8042    1.2209 O   0  0  0  0  0  0  0  0  0  0  0  0
    9.8421    3.8751    3.5273 O   0  0  0  0  0  0  0  0  0  0  0  0
    4.4344    0.4102    2.7441 S   0  0  0  0  0  0  0  0  0  0  0  0
    9.2781    3.1697    2.3989 S   0  0  0  0  0  0  0  0  0  0  0  0
    7.0682   -3.6225    6.8122 H   0  0  0  0  0  0  0  0  0  0  0  0
    4.7721   -2.7332    7.0866 H   0  0  0  0  0  0  0  0  0  0  0  0
    8.2623   -3.3811    4.6392 H   0  0  0  0  0  0  0  0  0  0  0  0
    3.6250   -1.5793    5.1865 H   0  0  0  0  0  0  0  0  0  0  0  0
    6.5828    2.3419    1.3346 H   0  0  0  0  0  0  0  0  0  0  0  0
    7.8193   -1.1849    2.3443 H   0  0  0  0  0  0  0  0  0  0  0  0
    7.6032   -2.8602    1.8169 H   0  0  0  0  0  0  0  0  0  0  0  0
    5.9037   -0.8233    0.8554 H   0  0  0  0  0  0  0  0  0  0  0  0
    5.3654   -2.4907    1.0743 H   0  0  0  0  0  0  0  0  0  0  0  0
   11.3290    1.9439    3.7741 H   0  0  0  0  0  0  0  0  0  0  0  0
   11.9524    0.8492    2.5243 H   0  0  0  0  0  0  0  0  0  0  0  0
   10.4478    0.4381    3.3907 H   0  0  0  0  0  0  0  0  0  0  0  0
    9.4659    1.8115    0.0008 H   0  0  0  0  0  0  0  0  0  0  0  0
    9.1611    0.4041    1.0679 H   0  0  0  0  0  0  0  0  0  0  0  0
   10.7782    0.6786    0.3694 H   0  0  0  0  0  0  0  0  0  0  0  0
  1  7  1  0  0  0  0
  1 15  3  0  0  0  0
  2  3  1  0  0  0  0
  2  4  2  0  0  0  0
  2 26  1  0  0  0  0
  3  5  2  0  0  0  0
  3 27  1  0  0  0  0
  4  8  1  0  0  0  0
  4 28  1  0  0  0  0
  5  9  1  0  0  0  0
  5 29  1  0  0  0  0
  6 10  2  0  0  0  0
  6 17  1  0  0  0  0
  6 30  1  0  0  0  0
  7 16  2  0  0  0  0
  7 17  1  0  0  0  0
  8  9  2  0  0  0  0
  8 11  1  0  0  0  0
  9 18  1  0  0  0  0
 10 16  1  0  0  0  0
 10 24  1  0  0  0  0
 11 12  1  0  0  0  0
 11 31  1  0  0  0  0
 11 32  1  0  0  0  0
 12 18  1  0  0  0  0
 12 33  1  0  0  0  0
 12 34  1  0  0  0  0
 13 19  1  0  0  0  0
 13 35  1  0  0  0  0
 13 36  1  0  0  0  0
 13 37  1  0  0  0  0
 14 19  1  0  0  0  0
 14 38  1  0  0  0  0
 14 39  1  0  0  0  0
 14 40  1  0  0  0  0
 17 25  1  0  0  0  0
 18 24  1  0  0  0  0
 19 25  1  0  0  0  0
 20 24  2  0  0  0  0
 21 24  2  0  0  0  0
 22 25  2  0  0  0  0
 23 25  2  0  0  0  0
M  END
$$$$
