
  -OEChem-05262117483D

 40 42  0     1  0  0  0  0  0999 V2000
    9.3031    1.7538   -0.1370 C   0  0  0  0  0  0  0  0  0  0  0  0
    6.8058   -3.2038    3.5807 C   0  0  0  0  0  0  0  0  0  0  0  0
    5.8811   -3.1257    2.5341 C   0  0  0  0  0  0  0  0  0  0  0  0
    7.0402   -2.0876    4.3977 C   0  0  0  0  0  0  0  0  0  0  0  0
    5.1813   -1.9400    2.2695 C   0  0  0  0  0  0  0  0  0  0  0  0
    6.0994    0.1572   -0.5390 C   0  0  0  0  0  0  0  0  0  0  0  0
    7.9590    1.2862   -0.0606 C   0  0  0  0  0  0  0  0  0  0  0  0
    6.3615   -0.9015    4.1385 C   0  0  0  0  0  0  0  0  0  0  0  0
    5.4529   -0.8326    3.0739 C   0  0  0  0  0  0  0  0  0  0  0  0
    5.9195    1.0059    0.5321 C   0  0  0  0  0  0  0  0  0  0  0  0
    6.3704    0.4104    4.8896 C   0  0  0  0  0  0  0  0  0  0  0  0
    5.6756    1.3830    3.9139 C   0  0  0  0  0  0  0  0  0  0  0  0
    6.6354    0.9866   -4.0212 C   0  0  0  0  0  0  0  0  0  0  0  0
    8.9210    1.8419   -3.5082 C   0  0  0  0  0  0  0  0  0  0  0  0
   10.3889    2.1681   -0.2077 N   0  0  0  0  0  0  0  0  0  0  0  0
    7.0671    1.6935    0.8276 N   0  0  0  0  0  0  0  0  0  0  0  0
    7.4099    0.3397   -0.9245 N   0  0  0  0  0  0  0  0  0  0  0  0
    4.8838    0.4799    3.0086 N   0  0  1  0  0  0  0  0  0  0  0  0
    8.0032    0.6881   -3.5609 N   0  0  0  0  0  0  0  0  0  0  0  0
    4.1267    2.5293    1.7637 O   0  0  0  0  0  0  0  0  0  0  0  0
    3.4901    0.2136    0.8874 O   0  0  0  0  0  0  0  0  0  0  0  0
    9.5308   -0.6091   -2.0227 O   0  0  0  0  0  0  0  0  0  0  0  0
    7.2147   -1.5204   -2.6359 O   0  0  0  0  0  0  0  0  0  0  0  0
    4.4377    1.1269    1.5228 S   0  0  0  0  0  0  0  0  0  0  0  0
    8.1376   -0.4357   -2.3672 S   0  0  0  0  0  0  0  0  0  0  0  0
    7.3372   -4.1329    3.7662 H   0  0  0  0  0  0  0  0  0  0  0  0
    5.6930   -3.9982    1.9141 H   0  0  0  0  0  0  0  0  0  0  0  0
    7.7470   -2.1473    5.2220 H   0  0  0  0  0  0  0  0  0  0  0  0
    4.4428   -1.8898    1.4780 H   0  0  0  0  0  0  0  0  0  0  0  0
    5.4436   -0.5478   -1.0260 H   0  0  0  0  0  0  0  0  0  0  0  0
    5.7977    0.3149    5.8193 H   0  0  0  0  0  0  0  0  0  0  0  0
    7.3753    0.7528    5.1505 H   0  0  0  0  0  0  0  0  0  0  0  0
    4.9988    2.0858    4.3970 H   0  0  0  0  0  0  0  0  0  0  0  0
    6.4130    1.9404    3.3308 H   0  0  0  0  0  0  0  0  0  0  0  0
    6.0749    0.0604   -4.1384 H   0  0  0  0  0  0  0  0  0  0  0  0
    6.7183    1.4714   -4.9960 H   0  0  0  0  0  0  0  0  0  0  0  0
    6.1121    1.6596   -3.3296 H   0  0  0  0  0  0  0  0  0  0  0  0
    9.9019    1.5225   -3.1618 H   0  0  0  0  0  0  0  0  0  0  0  0
    8.5371    2.6346   -2.8548 H   0  0  0  0  0  0  0  0  0  0  0  0
    9.0130    2.2291   -4.5253 H   0  0  0  0  0  0  0  0  0  0  0  0
  1  7  1  0  0  0  0
  1 15  3  0  0  0  0
  2  3  1  0  0  0  0
  2  4  2  0  0  0  0
  2 26  1  0  0  0  0
  3  5  2  0  0  0  0
  3 27  1  0  0  0  0
  4  8  1  0  0  0  0
  4 28  1  0  0  0  0
  5  9  1  0  0  0  0
  5 29  1  0  0  0  0
  6 10  2  0  0  0  0
  6 17  1  0  0  0  0
  6 30  1  0  0  0  0
  7 16  2  0  0  0  0
  7 17  1  0  0  0  0
  8  9  2  0  0  0  0
  8 11  1  0  0  0  0
  9 18  1  0  0  0  0
 10 16  1  0  0  0  0
 10 24  1  0  0  0  0
 11 12  1  0  0  0  0
 11 31  1  0  0  0  0
 11 32  1  0  0  0  0
 12 18  1  0  0  0  0
 12 33  1  0  0  0  0
 12 34  1  0  0  0  0
 13 19  1  0  0  0  0
 13 35  1  0  0  0  0
 13 36  1  0  0  0  0
 13 37  1  0  0  0  0
 14 19  1  0  0  0  0
 14 38  1  0  0  0  0
 14 39  1  0  0  0  0
 14 40  1  0  0  0  0
 17 25  1  0  0  0  0
 18 24  1  0  0  0  0
 19 25  1  0  0  0  0
 20 24  2  0  0  0  0
 21 24  2  0  0  0  0
 22 25  2  0  0  0  0
 23 25  2  0  0  0  0
M  END
$$$$
