41
0 1 BrC19H17N2O2
C                    -5.410782817813     5.334259956616    -2.724138847767
C                    -5.394315516239     5.151418540949    -4.110721334351
C                    -1.884548370276     3.129368663709    -0.977092471298
C                    -2.898399808424     2.395198033738    -0.368201482017
C                    -2.937088822146     3.086212373016    -4.555271139046
C                    -3.946849529951     2.016768884473    -2.529882539906
C                    -3.330547487920     6.396839429349    -4.220536062107
C                    -2.931702062730     2.766914908759    -3.153232465660
C                    -2.020095758096     3.935249383399    -5.086843045931
C                    -4.371243392742     5.993172474798    -2.062395813603
C                    -3.315917087447     6.541967046682    -2.830496455514
C                    -4.338165588949     5.666493358875    -4.862717166369
C                    -1.911261675088     3.318166159385    -2.360399620828
C                    -3.924919907748     1.848525573595    -1.154096099228
C                    -0.936792732106     4.469049195133    -4.246928156352
C                    -2.124388791538     4.447180904568    -6.483657332637
C                    -4.364653591272     6.096324835012    -0.556797562263
C                    -2.164162242827     7.250998218951    -2.161136111197
C                    -0.965058489393     4.184955837494    -7.412882417872
N                    -3.138813646111     5.079989222075    -6.976758982366
N                    -4.284966832449     5.363343335027    -6.266725336790
O                    -0.070481409028     5.239299116744    -4.607210940628
O                    -0.915729870423     4.070825436747    -2.913175441582
Br                   -5.333720814998     0.871463662281    -0.297662943017
H                    -6.225888874320     4.909122202961    -2.143058036528
H                    -6.170611261023     4.573123487884    -4.604843666376
H                    -1.080261098420     3.568679804523    -0.395267483440
H                    -2.899262346110     2.252007056826     0.707153566857
H                    -3.745309214204     2.709795494180    -5.176580097092
H                    -4.753307613728     1.605210691187    -3.128392940309
H                    -2.514810287046     6.807172286346    -4.809136846641
H                    -3.473654113984     5.620315371058    -0.131702227454
H                    -4.360935380519     7.139949979117    -0.221125248982
H                    -5.241041967180     5.606152133518    -0.125144891005
H                    -2.506066035814     8.108999094399    -1.570850246504
H                    -1.636299550683     6.578501097342    -1.474961854234
H                    -1.437075649966     7.605271111187    -2.894805070589
H                    -0.759496596181     3.109366839375    -7.479121603706
H                    -1.199826688881     4.566123140151    -8.408626343222
H                    -0.057582328219     4.670080738743    -7.041824363187
H                    -4.875782678703     5.955307273573    -6.838308951711
