24
0 1 C9H11NO3
C                     2.184048732988    -1.472742204549    -0.610259113458
C                     2.023359479710    -0.938950081759     2.108421139087
C                     1.095633876310    -0.713341119562    -0.127714998882
C                     3.082145556192    -1.701984132341     1.630873007724
C                     1.011398844654    -0.426497559166     1.263626161395
C                     3.154763116034    -1.962385559496     0.242982368616
C                     0.057538798102    -0.247075236835    -1.051734525562
C                     4.152916681563    -2.228300954976     2.551573714859
C                     3.935765484640    -4.036924344342    -0.580619882013
N                     0.021082240153     0.368063446142     1.797837186157
O                    -0.958825998958     0.377639389320    -0.747221796311
O                     0.288499784522    -0.577286600055    -2.355393122864
O                     4.238305166078    -2.679281474596    -0.247678255433
H                     2.258779466768    -1.671659716952    -1.673547609569
H                     1.969553688156    -0.714005760847     3.171968619817
H                     4.192503624344    -3.322597817437     2.525844632033
H                     5.139424189125    -1.871990084882     2.239909758868
H                     3.975288979074    -1.915776540965     3.583622091460
H                     4.867471315597    -4.488876168733    -0.928306883398
H                     3.183923082263    -4.093522895084    -1.377837531547
H                     3.566257442923    -4.586382213402     0.295489072452
H                    -0.153691699600     0.280405997918     2.789499128464
H                    -0.779306440315     0.556100339538     1.202813629647
H                    -0.470258445406    -0.214708488460    -2.850195410563
