26
0 1 C10ClH13OS
C                     5.794075417858     1.939633024395     0.673773078991
C                     6.706985980272     2.825036045213     1.247522510400
C                     4.882621383966     3.966306672182     2.357827771959
C                     4.422690562091     2.047948624864     0.923653923437
C                     6.254341261825     3.847217113664     2.093803126652
C                     3.982701661690     3.074744891190     1.774915975820
C                     2.551243973955    -0.856876358000    -1.512961556430
C                     0.760496428895     0.434914598961    -0.254814104284
C                     2.943541074584     1.556388870523    -0.861380899629
C                     1.906340210610     0.515824990123    -1.273663875191
O                     3.550022825860     1.139807859447     0.383549510289
S                     7.341773378213     5.030565912135     2.868019617756
Cl                    2.274381632396     3.229838502932     2.131308233369
H                     6.134771220984     1.137301612676     0.025165588473
H                     7.766423955452     2.712342704559     1.034244335023
H                     4.508734030407     4.741998059549     3.019468468542
H                     2.986906686614    -1.246370502196    -0.588065019068
H                     3.347802141682    -0.798287820482    -2.263814222796
H                     1.807108624893    -1.577735265356    -1.867876965052
H                     1.132094233751     0.104902989555     0.719452232619
H                    -0.004381666681    -0.274379632591    -0.588649564090
H                     0.281898632200     1.410350174078    -0.116308245433
H                     3.730678967193     1.649799581008    -1.622637883179
H                     2.473957113160     2.538255224067    -0.724664442933
H                     1.496773237082     0.875989804924    -2.228124760132
H                     8.497433587690     4.493818212913     2.428791541890
