
  -OEChem-05262117483D

 26 26  0     0  0  0  0  0  0999 V2000
    4.8770    2.9586    0.3629 C   0  0  0  0  0  0  0  0  0  0  0  0
    6.0727    3.5687    0.7542 C   0  0  0  0  0  0  0  0  0  0  0  0
    6.7149    1.5653    1.9393 C   0  0  0  0  0  0  0  0  0  0  0  0
    4.5886    1.6406    0.7445 C   0  0  0  0  0  0  0  0  0  0  0  0
    7.0014    2.8786    1.5369 C   0  0  0  0  0  0  0  0  0  0  0  0
    5.5321    0.9540    1.5383 C   0  0  0  0  0  0  0  0  0  0  0  0
    0.2221    1.3529   -1.4350 C   0  0  0  0  0  0  0  0  0  0  0  0
    1.8332   -0.6100   -1.4002 C   0  0  0  0  0  0  0  0  0  0  0  0
    2.4850    1.6217   -0.4106 C   0  0  0  0  0  0  0  0  0  0  0  0
    1.3424    0.6424   -0.6632 C   0  0  0  0  0  0  0  0  0  0  0  0
    3.4603    0.9677    0.4116 O   0  0  0  0  0  0  0  0  0  0  0  0
    8.5060    3.6952    2.0877 S   0  0  0  0  0  0  0  0  0  0  0  0
    5.1978   -0.6913    2.0356 Cl  0  0  0  0  0  0  0  0  0  0  0  0
    4.1735    3.5167   -0.2437 H   0  0  0  0  0  0  0  0  0  0  0  0
    6.2829    4.5877    0.4444 H   0  0  0  0  0  0  0  0  0  0  0  0
    7.4122    1.0197    2.5664 H   0  0  0  0  0  0  0  0  0  0  0  0
    0.5725    1.6924   -2.4174 H   0  0  0  0  0  0  0  0  0  0  0  0
   -0.1560    2.2260   -0.8913 H   0  0  0  0  0  0  0  0  0  0  0  0
   -0.6197    0.6739   -1.6027 H   0  0  0  0  0  0  0  0  0  0  0  0
    2.2233   -0.3494   -2.3922 H   0  0  0  0  0  0  0  0  0  0  0  0
    1.0130   -1.3218   -1.5411 H   0  0  0  0  0  0  0  0  0  0  0  0
    2.6290   -1.1097   -0.8421 H   0  0  0  0  0  0  0  0  0  0  0  0
    2.9475    1.9248   -1.3607 H   0  0  0  0  0  0  0  0  0  0  0  0
    2.1188    2.5212    0.1017 H   0  0  0  0  0  0  0  0  0  0  0  0
    0.9550    0.3402    0.3179 H   0  0  0  0  0  0  0  0  0  0  0  0
    9.3514    3.1041    1.2133 H   0  0  0  0  0  0  0  0  0  0  0  0
  1  2  1  0  0  0  0
  1  4  2  0  0  0  0
  1 14  1  0  0  0  0
  2  5  2  0  0  0  0
  2 15  1  0  0  0  0
  3  5  1  0  0  0  0
  3  6  2  0  0  0  0
  3 16  1  0  0  0  0
  4  6  1  0  0  0  0
  4 11  1  0  0  0  0
  5 12  1  0  0  0  0
  6 13  1  0  0  0  0
  7 10  1  0  0  0  0
  7 17  1  0  0  0  0
  7 18  1  0  0  0  0
  7 19  1  0  0  0  0
  8 10  1  0  0  0  0
  8 20  1  0  0  0  0
  8 21  1  0  0  0  0
  8 22  1  0  0  0  0
  9 10  1  0  0  0  0
  9 11  1  0  0  0  0
  9 23  1  0  0  0  0
  9 24  1  0  0  0  0
 10 25  1  0  0  0  0
 12 26  1  0  0  0  0
M  END
$$$$
