41
0 1 BrC19H17N2O2
C                    -7.242610469114     7.670022139578    -3.756991033968
C                    -6.399352767095     6.567611265359    -3.615536271609
C                    -2.623734959900    -0.694078021323    -2.007751752430
C                    -2.025457402761    -1.844858428443    -2.515211974883
C                    -1.989534975122     1.776898188983    -4.724135127167
C                    -1.364880278286    -0.642177579942    -4.526133980355
C                    -5.165596939416     7.306531662970    -5.563347915007
C                    -1.970427047516     0.529235298452    -4.021843936861
C                    -2.611458895296     2.901724152579    -4.235935282982
C                    -7.072793411671     8.603911535626    -4.786103112063
C                    -6.011800750888     8.410120961920    -5.699417256768
C                    -5.349853046854     6.381096063367    -4.525040626153
C                    -2.594199087348     0.476962697323    -2.765569528618
C                    -1.401749620918    -1.805856914410    -3.773653437888
C                    -3.221291349044     2.811815044740    -2.894167914769
C                    -2.567137912021     4.157607953955    -5.025442661803
C                    -8.003330644718     9.787375890524    -4.912576481288
C                    -5.785551346681     9.391162767409    -6.826604689542
C                    -1.421150252315     4.284116254168    -6.014974448875
N                    -3.409082545461     5.150841764249    -5.085754105067
N                    -4.534937208387     5.247239611294    -4.379340656041
O                    -3.743549747605     3.721424721424    -2.269985746723
O                    -3.188612724788     1.591070996741    -2.247034177490
Br                   -0.588672519797    -3.399066713143    -4.458019618033
H                    -8.052535420345     7.806422682772    -3.043673229954
H                    -6.550596492918     5.859566654040    -2.803777176291
H                    -3.112806290157    -0.692787548610    -1.038761635115
H                    -2.041003375061    -2.766295792589    -1.943059452126
H                    -1.493756297260     1.813182256328    -5.688064590521
H                    -0.878619778619    -0.622566230181    -5.496539874255
H                    -4.348821207099     7.152227917009    -6.259866760922
H                    -7.462466640018    10.739150989450    -4.844189206403
H                    -8.528402958971     9.790832878239    -5.875644412393
H                    -8.759448613745     9.778135985458    -4.122737377149
H                    -6.662744050781     9.459296624620    -7.480962563596
H                    -5.595650463603    10.401765158027    -6.445944793746
H                    -4.930443430125     9.098260863507    -7.441074360229
H                    -1.544776923319     3.621967907303    -6.882127317179
H                    -1.393929789356     5.308153157680    -6.388165135345
H                    -0.455382321495     4.049070617652    -5.553774104413
H                    -4.614047613851     4.721685063140    -3.507181596695
