26
0 1 C10ClH13OS
C                     3.201230606120     3.924742940305     1.526472175592
C                     3.761172036651     4.820305078755     2.443102557457
C                     5.454477096517     3.193670653486     2.997350999012
C                     3.756314427986     2.654058338102     1.327899438016
C                     4.890238757619     4.464718578178     3.186017068236
C                     4.894608713609     2.307858144758     2.083473889131
C                     1.472936899428    -0.411169237453    -0.303543355978
C                     0.586501369203     1.167774568109    -2.084117559123
C                     2.110021005840     2.034177597597    -0.302517879336
C                     1.766646835764     0.823135511038    -1.165415342642
O                     3.282179674844     1.723607292147     0.458179710983
S                     5.673668160460     5.544062739494     4.373518399656
Cl                    5.616747684762     0.727564609219     1.869264324821
H                     2.325751234950     4.230686453606     0.965818938211
H                     3.303286304775     5.797930960681     2.566969776546
H                     6.330142960320     2.884625045166     3.560380675993
H                     0.593123270563    -0.242195873695     0.330078402154
H                     2.319173720974    -0.648652809255     0.346010478022
H                     1.267410805055    -1.282939848976    -0.933762853902
H                    -0.311317413711     1.407334895873    -1.501275111658
H                     0.341956308533     0.319452153340    -2.731086224862
H                     0.809659272520     2.025867292845    -2.728270875099
H                     2.302122202468     2.914449515093    -0.930938396999
H                     1.278093194280     2.267290282057     0.377827104352
H                     2.645399586032     0.612392867098    -1.787910615450
H                     4.801396666833     6.565086746099     4.257552934053
