41
0 1 BrC19H17N2O2
C                    -7.843081677462     4.699532435076    -7.797837518085
C                    -6.551013897318     4.433253658897    -7.343175607861
C                    -0.610428905258     1.216039482675    -1.179998741595
C                     0.677752576284     1.560984070792    -0.777568341891
C                    -0.984021776991     3.152845827623    -4.341139628375
C                     0.931247404739     2.987226558363    -2.734036541273
C                    -7.517654721823     3.217595675948    -5.485267558276
C                    -0.374031924774     2.645633122519    -3.149607088465
C                    -2.265164820623     2.830578758445    -4.725097197795
C                    -8.983901768245     4.244093581580    -7.124436688802
C                    -8.809063454085     3.487868972761    -5.944379748297
C                    -6.384917553636     3.681767932543    -6.173544453260
C                    -1.122655236343     1.761784538589    -2.357338134869
C                     1.436703458467     2.445441541896    -1.562450193297
C                    -2.999479026955     1.863207219590    -3.884280315076
C                    -2.804690700202     3.390433583834    -5.988914148741
C                   -10.365248332085     4.556045616353    -7.650737435033
C                   -10.004516001185     2.967335840077    -5.180674611051
C                    -1.774633628028     3.864226070448    -7.000900745231
N                    -4.030652202660     3.635408780908    -6.359941463522
N                    -5.120944622415     3.391398871859    -5.636087434320
O                    -4.104643638835     1.394448139601    -4.106574495349
O                    -2.385588789438     1.405498481615    -2.734060486542
Br                    3.207933625054     2.906346303843    -0.997804970042
H                    -7.966401811984     5.282428541110    -8.708374810669
H                    -5.679988192680     4.792205959372    -7.878713205805
H                    -1.220138097758     0.533941504225    -0.595905525584
H                     1.093307062948     1.148935287897     0.135773753955
H                    -0.394257225935     3.827347551883    -4.951684476359
H                     1.526446711584     3.669090931534    -3.333437785051
H                    -7.383490439187     2.631020544734    -4.578055906331
H                   -10.933491272443     3.643376247620    -7.867968077331
H                   -10.955891513107     5.131606252017    -6.927404587174
H                   -10.310564587913     5.140117263102    -8.573490677690
H                   -10.659995678008     3.784354290105    -4.856924993708
H                   -10.614278471247     2.298467725818    -5.799550682163
H                    -9.696971890866     2.411694344807    -4.290961642939
H                    -1.002620255113     3.108371822174    -7.184142589292
H                    -2.284066887711     4.082212832895    -7.939690406918
H                    -1.268879070727     4.784568048351    -6.680133739984
H                    -5.071536817367     2.696126529322    -4.889058523103
