15
0 1 BrC6F3H3NS
C                     0.248162484332    -0.385904581715     0.941160116294
C                     1.634186297367    -0.637371068629     2.906213078188
C                    -0.637202340476    -1.290806221674     1.527125122060
C                     1.402327720562    -0.064855165174     1.661036865456
C                     0.663219597335    -1.534281968662     3.384611719040
C                    -0.462366635159    -3.334627020872     5.238881437172
N                    -0.443459853103    -1.860101150450     2.725635366211
F                    -0.567901208298    -4.311366340467     4.324767044230
F                    -1.627044082515    -2.669414214072     5.280840760765
F                    -0.274571750377    -3.917052963538     6.447363639558
S                     0.992494306309    -2.253165409865     4.993016301616
Br                    2.669904597301     1.164825325927     0.935774240604
H                     0.043315387821     0.046156175133    -0.031821986895
H                     2.523764452293    -0.402383948529     3.481585649564
H                    -1.550498979999    -1.574263222550     1.007957663462
