15
0 1 BrC6F3H3NS
C                     0.137454897035    -0.760318011507     0.873113890829
C                     0.722783546038    -0.381287378257     3.195046006223
C                    -0.658992540360    -1.820385188974     1.311091330443
C                     0.830761330359    -0.042691143925     1.847779804152
C                    -0.109017051320    -1.467278984317     3.504422159796
C                     0.568682601951    -1.054923410934     6.228412658024
N                    -0.785330270883    -2.173383340935     2.595439018345
F                     0.216909458190     0.251232087869     6.181505686264
F                     1.895078292963    -1.109311143959     5.965363762576
F                     0.377569125170    -1.490352253725     7.487818763458
S                    -0.433341101109    -2.119001280691     5.144136565104
Br                    1.942398933131     1.422535453040     1.337165844277
H                     0.209324893523    -0.511199430958    -0.179519722689
H                     1.260647190038     0.177232544699     3.948598365381
H                    -1.222268671044    -2.414224520971     0.594087976493
