
  -OEChem-05262117483D

 24 24  0     0  0  0  0  0  0999 V2000
    2.1840   -1.4727   -0.6103 C   0  0  0  0  0  0  0  0  0  0  0  0
    2.0234   -0.9390    2.1084 C   0  0  0  0  0  0  0  0  0  0  0  0
    1.0956   -0.7133   -0.1277 C   0  0  0  0  0  0  0  0  0  0  0  0
    3.0821   -1.7020    1.6309 C   0  0  0  0  0  0  0  0  0  0  0  0
    1.0114   -0.4265    1.2636 C   0  0  0  0  0  0  0  0  0  0  0  0
    3.1548   -1.9624    0.2430 C   0  0  0  0  0  0  0  0  0  0  0  0
    0.0575   -0.2471   -1.0517 C   0  0  0  0  0  0  0  0  0  0  0  0
    4.1529   -2.2283    2.5516 C   0  0  0  0  0  0  0  0  0  0  0  0
    3.9358   -4.0369   -0.5806 C   0  0  0  0  0  0  0  0  0  0  0  0
    0.0211    0.3681    1.7978 N   0  0  0  0  0  0  0  0  0  0  0  0
   -0.9588    0.3776   -0.7472 O   0  0  0  0  0  0  0  0  0  0  0  0
    0.2885   -0.5773   -2.3554 O   0  0  0  0  0  0  0  0  0  0  0  0
    4.2383   -2.6793   -0.2477 O   0  0  0  0  0  0  0  0  0  0  0  0
    2.2588   -1.6717   -1.6735 H   0  0  0  0  0  0  0  0  0  0  0  0
    1.9696   -0.7140    3.1720 H   0  0  0  0  0  0  0  0  0  0  0  0
    4.1925   -3.3226    2.5258 H   0  0  0  0  0  0  0  0  0  0  0  0
    5.1394   -1.8720    2.2399 H   0  0  0  0  0  0  0  0  0  0  0  0
    3.9753   -1.9158    3.5836 H   0  0  0  0  0  0  0  0  0  0  0  0
    4.8675   -4.4889   -0.9283 H   0  0  0  0  0  0  0  0  0  0  0  0
    3.1839   -4.0935   -1.3778 H   0  0  0  0  0  0  0  0  0  0  0  0
    3.5663   -4.5864    0.2955 H   0  0  0  0  0  0  0  0  0  0  0  0
   -0.1537    0.2804    2.7895 H   0  0  0  0  0  0  0  0  0  0  0  0
   -0.7793    0.5561    1.2028 H   0  0  0  0  0  0  0  0  0  0  0  0
   -0.4703   -0.2147   -2.8502 H   0  0  0  0  0  0  0  0  0  0  0  0
  1  3  1  0  0  0  0
  1  6  2  0  0  0  0
  1 14  1  0  0  0  0
  2  4  2  0  0  0  0
  2  5  1  0  0  0  0
  2 15  1  0  0  0  0
  3  5  2  0  0  0  0
  3  7  1  0  0  0  0
  4  6  1  0  0  0  0
  4  8  1  0  0  0  0
  5 10  1  0  0  0  0
  6 13  1  0  0  0  0
  7 11  2  0  0  0  0
  7 12  1  0  0  0  0
  8 16  1  0  0  0  0
  8 17  1  0  0  0  0
  8 18  1  0  0  0  0
  9 13  1  0  0  0  0
  9 19  1  0  0  0  0
  9 20  1  0  0  0  0
  9 21  1  0  0  0  0
 10 22  1  0  0  0  0
 10 23  1  0  0  0  0
 12 24  1  0  0  0  0
M  END
$$$$
