14   
torsion grid (-165,)
C        0.0958698711   -1.2260076573   -1.7788130855
C       -0.4364338138   -0.5089116550   -0.5357811782
C        0.0776320537    1.0943365031    1.3952494409
C        0.5498932020    0.4750952362    0.0838053080
Cl       0.1542861455   -0.1334236674    2.7347797548
Cl       0.8639632791    1.8789298154   -1.0567166708
H        1.0181902626   -1.7725602218   -1.5522873555
H       -0.6387485275   -1.9491706287   -2.1459641402
H        0.3101324589   -0.5202368252   -2.5859172841
H       -1.3654131968    0.0245351373   -0.7681143159
H       -0.6765069672   -1.2455226862    0.2398743786
H       -0.9543418677    1.4405490104    1.3271977649
H        0.7248719704    1.9151676167    1.6992923560
H        1.5274513651    0.0107362013    0.2278564413
14   
torsion grid (-150,)
C        0.0852411034   -1.2192920228   -1.7815880220
C       -0.4595860418   -0.4721136613   -0.5625105594
C        0.0439855749    1.0770855642    1.4053260016
C        0.5411240477    0.4726135380    0.0914824258
Cl       0.4248937342   -0.0416380336    2.7868452413
Cl       0.9768917491    1.8609800503   -1.0295059182
H        0.9729923216   -1.8052307708   -1.5187562480
H       -0.6669122594   -1.9098289331   -2.1750780257
H        0.3614898057   -0.5263448002   -2.5809612220
H       -1.3586664096    0.0952467596   -0.8295825934
H       -0.7555905169   -1.1924471433    0.2112014035
H       -1.0347255000    1.2380263777    1.3984255202
H        0.5550422074    2.0106453463    1.6315052951
H        1.4934577884   -0.0309196339    0.2642751049
14   
torsion grid (-135,)
C        0.0815670630   -1.1978807138   -1.7978707677
C       -0.4712051752   -0.4470487700   -0.5848966869
C        0.0150573195    1.0461881345    1.4285847741
C        0.5453462151    0.4454684087    0.1184527414
Cl       0.6521643340    0.1269091731    2.8602097347
Cl       1.1006285525    1.8116267981   -0.9759502582
H        0.9366994593   -1.8226122683   -1.5168513317
H       -0.6847030438   -1.8513096225   -2.2260028389
H        0.4107630463   -0.5046360460   -2.5765298338
H       -1.3391707115    0.1584374032   -0.8708228128
H       -0.8199096150   -1.1664322942    0.1684542621
H       -1.0737001424    1.0084275411    1.4792997738
H        0.3501701390    2.0720183720    1.5637692363
H        1.4632698319   -0.1076935421    0.3187306043
14   
torsion grid (-120,)
C        0.2148852072   -1.0607409788   -1.6457501635
C        0.0960951365   -0.7318992426   -0.1563841744
C       -0.2368343137    1.0366277492    1.6505927647
C       -0.2506135961    0.7246416830    0.1433243825
Cl       1.0441425630    2.2529756840    2.0690579483
Cl      -1.8932231987    1.1582887756   -0.5514480834
H        0.9578738398   -0.4185211811   -2.1316818325
H        0.5282760854   -2.1001615930   -1.7832689111
H       -0.7393352937   -0.9220299580   -2.1603717835
H       -0.6446751006   -1.3832783305    0.3222078966
H        1.0566180745   -0.9255668673    0.3403895789
H       -0.0158277856    0.1431573001    2.2356002667
H       -1.1806600279    1.4606885531    1.9853987514
H        0.4371271524    1.3895556423   -0.3789780965
14   
torsion grid (-105,)
C        0.1784190341   -1.0636093574   -1.6422579908
C        0.0744275311   -0.7299580566   -0.1524078628
C       -0.1929526163    1.0361853464    1.6560860211
C       -0.1818270729    0.7481564397    0.1473519238
Cl       0.8119032696    2.4841511935    2.0835921708
Cl      -1.7826338402    1.2681734870   -0.5801276890
H        0.9659531640   -0.4723577284   -2.1227070769
H        0.4217304610   -2.1217494620   -1.7789103007
H       -0.7609196648   -0.8604439120   -2.1623956376
H       -0.7082432327   -1.3344437250    0.3211271897
H        1.0191530688   -0.9876925893    0.3449434133
H        0.2435096778    0.2011464756    2.2059565743
H       -1.1982549638    1.2233003232    2.0276750892
H        0.5627024497    1.3680867958   -0.3523096130
14   
torsion grid (-90,)
C        0.1623641256   -1.0810985372   -1.6543945537
C        0.0495435443   -0.7497506072   -0.1641304715
C       -0.1804138734    1.0049030621    1.6436095941
C       -0.1316465421    0.7403948441    0.1389342543
Cl       0.5039362674    2.6236421475    2.0828109148
Cl      -1.6803167280    1.3472657523   -0.6261412403
H        0.9865208164   -0.5277116597   -2.1181687050
H        0.3552695975   -2.1495008273   -1.7916974764
H       -0.7563724715   -0.8292666429   -2.1895013644
H       -0.7742546659   -1.3127485865    0.2903016700
H        0.9693393214   -1.0643924233    0.3465782799
H        0.4378038113    0.2739339384    2.1680014923
H       -1.1977575795    0.9600638767    2.0293998471
H        0.6653154037    1.3220356412   -0.3260752083
14   
torsion grid (-75,)
C        0.1465841300   -1.0913273581   -1.6529960177
C        0.0118569721   -0.7594224849   -0.1642303643
C       -0.1439950723    1.0008549570    1.6349169006
C       -0.1016136716    0.7380366240    0.1358481351
Cl       0.2084686901    2.7259930318    2.0495984830
Cl      -1.6094943648    1.4213437565   -0.6379973075
H        1.0154064889   -0.5871901410   -2.0905719283
H        0.2781309698   -2.1688693006   -1.7912569522
H       -0.7401860255   -0.7817282198   -2.2112608244
H       -0.8530483747   -1.2785216426    0.2647900948
H        0.8993913759   -1.1254013433    0.3688088875
H        0.6278322525    0.4086199262    2.1310969594
H       -1.1189104344    0.7536309896    2.0552442217
H        0.7274777554    1.2832377387   -0.3192262105
14   
torsion grid (-60,)
C        0.1438555759   -1.0936919706   -1.6465591749
C       -0.0317305715   -0.7591351999   -0.1624699505
C       -0.0979460026    0.9987151919    1.6366204385
C       -0.0852935660    0.7412408608    0.1363148694
Cl      -0.0797589809    2.7520061664    2.0707351966
Cl      -1.5488959435    1.4964975146   -0.6476440917
H        1.0577080790   -0.6406087388   -2.0465269797
H        0.2166384560   -2.1766095756   -1.7862619056
H       -0.7005451913   -0.7297016543   -2.2369997340
H       -0.9386268021   -1.2331556613    0.2296781603
H        0.8134964317   -1.1722642716    0.4042862189
H        0.7947133396    0.5565423666    2.0842931825
H       -0.9875460390    0.5673010631    2.0981322460
H        0.7667258448    1.2527313022   -0.3176127334
14   
torsion grid (-45,)
C        0.1403753573   -1.1080843630   -1.6403743687
C       -0.0778337231   -0.7546332989   -0.1666059466
C       -0.0497122777    1.0023986198    1.6281754158
C       -0.0741297102    0.7480649873    0.1210438100
Cl      -0.3520186344    2.7102099405    2.1248917374
Cl      -1.4859303431    1.5659121182   -0.6870739641
H        1.0901786678   -0.7028108952   -2.0064739429
H        0.1653311217   -2.1941137100   -1.7725726839
H       -0.6617623650   -0.7068705576   -2.2648847271
H       -1.0222446967   -1.1793453506    0.1916821994
H        0.7214237723   -1.2045087377    0.4383181980
H        0.9319400554    0.7231200128    2.0161930868
H       -0.8154619599    0.4049693602    2.1265660012
H        0.7988055675    1.2198794941   -0.3369265109
14   
torsion grid (-30,)
C        0.1160078051   -1.1174111272   -1.6310469430
C       -0.1165460312   -0.7389420092   -0.1661717144
C       -0.0137479393    1.0187305261    1.6287231777
C       -0.0531576765    0.7634820838    0.1111664210
Cl      -0.6164652138    2.6193699941    2.1975052438
Cl      -1.3994062549    1.6429032854   -0.7392300562
H        1.0909474406   -0.7600264084   -1.9807888030
H        0.0935956844   -2.2047512938   -1.7525766911
H       -0.6533867280   -0.6860733852   -2.2763330051
H       -1.0851075309   -1.1179602597    0.1790937932
H        0.6501415805   -1.2164762550    0.4601216061
H        1.0169380071    0.9188273404    1.9735455576
H       -0.6310086493    0.2807840686    2.1443433551
H        0.8464302464    1.1886807563   -0.3401987576
14   
torsion grid (-15,)
C        0.0892262946   -1.1262724272   -1.6256077051
C       -0.1442228672   -0.7275772142   -0.1666506674
C        0.0196949439    1.0338008581    1.6351603803
C       -0.0127083653    0.7708836960    0.1074328218
Cl      -0.8669334397    2.4747186680    2.2561793493
Cl      -1.2878674890    1.7075477798   -0.7886699241
H        1.0826809253   -0.8129891889   -1.9657978741
H        0.0227788352   -2.2126864436   -1.7393628557
H       -0.6529716308   -0.6683104991   -2.2841680241
H       -1.1336390026   -1.0582801937    0.1699414141
H        0.5916587991   -1.2366974391    0.4716285963
H        1.0573588273    1.1379585068    1.9546909683
H       -0.4232388330    0.1856231256    2.1590421411
H        0.9168034757    1.1443447550   -0.3276749428
14   
torsion grid (0,)
C        0.0449880694   -1.1342979446   -1.6263167919
C       -0.1612817413   -0.7162748939   -0.1688202675
C        0.0485434364    1.0587332646    1.6341247964
C        0.0505947495    0.7746733245    0.1028674036
Cl      -1.1014201963    2.2975211283    2.2608253823
Cl      -1.1416136343    1.7643341091   -0.8469560792
H        1.0475376529   -0.8625447561   -1.9759411323
H       -0.0637348706   -2.2183419404   -1.7302769147
H       -0.6829514778   -0.6539925301   -2.2844778785
H       -1.1644688510   -0.9947889510    0.1748419708
H        0.5520480857   -1.2598508842    0.4661189620
H        1.0417633240    1.3857047351    1.9424189307
H       -0.1984470368    0.1423564221    2.1707119009
H        1.0166235118    1.0857155978   -0.3001016615
14   
torsion grid (15,)
C        0.0131210865   -1.1443386059   -1.6271144948
C       -0.1859657044   -0.7131422230   -0.1723887158
C        0.0631742655    1.0721190456    1.6270745261
C        0.1026838796    0.7655638669    0.1031061154
Cl      -1.3207827083    2.0500125377    2.2436269854
Cl      -1.0219605074    1.7986537966   -0.8835598701
H        1.0304457317   -0.9207470048   -1.9684916136
H       -0.1449608048   -2.2225173232   -1.7288031721
H       -0.6854422990   -0.6336616211   -2.2940625319
H       -1.2060367157   -0.9378018254    0.1606328430
H        0.4910051555   -1.2939458565    0.4687552646
H        0.9564211425    1.6278873846    1.9126697257
H        0.0420926762    0.1349618003    2.1834902976
H        1.0978590824    1.0217319293   -0.2670385635
14   
torsion grid (30,)
C       -0.0140698325   -1.1420343514   -1.6255390867
C       -0.2094243153   -0.7069819653   -0.1714009166
C        0.0835526312    1.0768351893    1.6241995910
C        0.1522957301    0.7540511246    0.1148888863
Cl      -1.4740793877    1.7562164884    2.2305142969
Cl      -0.9056723336    1.8424655632   -0.8866096189
H        1.0181541516   -0.9719644690   -1.9529815301
H       -0.2282525992   -2.2097696824   -1.7344977644
H       -0.6757314580   -0.5926329350   -2.2993579606
H       -1.2439003241   -0.8796025612    0.1466149916
H        0.4281890371   -1.3241552764    0.4757454469
H        0.8350810092    1.8246052873    1.8793344084
H        0.2796141054    0.1697784063    2.1971953311
H        1.1717706498    0.9589771478   -0.2222255248
14   
torsion grid (45,)
C       -0.0334503604   -1.1356142200   -1.6111394233
C       -0.2424303627   -0.6854568461   -0.1633512475
C        0.1259283802    1.1062418844    1.6135222660
C        0.1958952491    0.7531056278    0.1235221955
Cl      -1.5265712005    1.4865188199    2.2349031974
Cl      -0.7929496766    1.9050044668   -0.8813427182
H        1.0152020730   -1.0278439843   -1.9117155080
H       -0.3077139762   -2.1889302658   -1.7253179845
H       -0.6439336863   -0.5496147225   -2.3025515451
H       -1.2927055445   -0.7962413493    0.1262385945
H        0.3406746360   -1.3336716501    0.5045811598
H        0.7231672683    1.9954109060    1.8190885831
H        0.5113536279    0.2718697186    2.2023930473
H        1.2311193927    0.9023678866   -0.1977834645
14   
torsion grid (60,)
C       -0.0338087563   -1.1533551982   -1.6041666616
C       -0.2831920736   -0.6849858678   -0.1685414282
C        0.1460446550    1.1234467267    1.5915401018
C        0.2075344277    0.7336082522    0.1191788836
Cl      -1.5299844041    1.1965246495    2.2659752502
Cl      -0.7119331483    1.9412696160   -0.8933175486
H        1.0308936590   -1.1024875150   -1.8597507346
H       -0.3585464533   -2.1910370684   -1.7279777667
H       -0.5827647907   -0.5388291014   -2.3223455721
H       -1.3473098539   -0.7473208795    0.0772610952
H        0.2418839766   -1.3498955355    0.5307409240
H        0.5797862850    2.1115951599    1.7470848900
H        0.6968046810    0.3879805386    2.1825145213
H        1.2515482789    0.8408248892   -0.1930559276
14   
torsion grid (75,)
C       -0.0195716985   -1.1728020056   -1.6072363445
C       -0.3312042320   -0.6870649786   -0.1895584737
C        0.1444720356    1.1251254832    1.5755707348
C        0.1966846545    0.7124853183    0.1110426729
Cl      -1.4758498348    0.8906109501    2.3484045599
Cl      -0.6489482171    1.9676429245   -0.9172707604
H        1.0596340036   -1.1789196223   -1.7986285178
H       -0.3909250817   -2.1920411028   -1.7510294404
H       -0.4917873693   -0.5318366542   -2.3565381459
H       -1.4081287040   -0.7081529339   -0.0033832733
H        0.1265885711   -1.3636642978    0.5447642789
H        0.4067128245    2.1754481957    1.6979961047
H        0.8441304158    0.5062220854    2.1429208844
H        1.2467613631    0.7877873888   -0.1909626295
14   
torsion grid (90,)
C       -0.0283077687   -1.1745133647   -1.6028211809
C       -0.3719616777   -0.6694416206   -0.1993440822
C        0.1392159300    1.1486115796    1.5747000160
C        0.2044777679    0.7063430632    0.1138443434
Cl      -1.3698202693    0.6511586591    2.4473804895
Cl      -0.5320478330    1.9995191574   -0.9589838525
H        1.0560469388   -1.2253835245   -1.7543112334
H       -0.4349932559   -2.1789431360   -1.7549027213
H       -0.4463038261   -0.5198983423   -2.3722346639
H       -1.4545201990   -0.6455136348   -0.0513683537
H        0.0288749249   -1.3601526779    0.5544964934
H        0.2259257806    2.2296290522    1.6684956976
H        0.9561707676    0.6716366371    2.1212291697
H        1.2636095929    0.7306516280   -0.1615478221
14   
torsion grid (105,)
C       -0.0517780956   -1.1708145642   -1.5936688388
C       -0.4022925279   -0.6500201502   -0.1975529602
C        0.1401985010    1.1750957137    1.5881922992
C        0.2357878181    0.6948249444    0.1300129668
Cl      -1.2093660024    0.4443484422    2.5576333601
Cl      -0.3860019450    2.0139044112   -0.9882094367
H        1.0326378059   -1.2628284215   -1.7241981397
H       -0.4924010138   -2.1602629529   -1.7497088575
H       -0.4300378182   -0.5046787242   -2.3734612808
H       -1.4857030880   -0.5736284192   -0.0735197435
H       -0.0534937781   -1.3602811886    0.5626308520
H        0.0230573306    2.2548688578    1.6462595283
H        1.0500600131    0.8859158412    2.1171260037
H        1.3006260309    0.6558386654   -0.1151607511
14   
torsion grid (120,)
C       -0.0692418802   -1.1710372949   -1.6041591632
C       -0.4233516853   -0.6379304248   -0.2135244968
C        0.1218451060    1.1962024918    1.5826989899
C        0.2796845336    0.6698346088    0.1362721966
Cl      -1.0235485206    0.2600583404    2.6374435125
Cl      -0.2321594564    2.0021522955   -1.0241148936
H        1.0114522810   -1.3220851616   -1.7084336436
H       -0.5589332739   -2.1350129025   -1.7730916480
H       -0.3913430312   -0.4847441477   -2.3914129562
H       -1.5043583309   -0.5062986838   -0.1121281106
H       -0.1281724726   -1.3707044450    0.5463362844
H       -0.2379130097    2.2219838385    1.5905645318
H        1.0820642433    1.1544936383    2.0973804069
H        1.3479441310    0.5640785750   -0.0654010221
14   
torsion grid (135,)
C        0.1041189394   -1.2231002836   -1.7792067457
C       -0.3360675875   -0.6329058872   -0.4367899924
C        0.1985493056    1.1435282504    1.4187210379
C        0.5288542168    0.5337209749    0.0338281189
Cl      -0.9554588814    0.1777587479    2.4394508484
Cl       0.4320334196    1.9053500618   -1.1880031131
H        1.1531817498   -1.5395435195   -1.7478019463
H       -0.5022946750   -2.1019930277   -2.0188951555
H       -0.0060407695   -0.5027444227   -2.5934848727
H       -1.3828698692   -0.3160253658   -0.4769663910
H       -0.2749345596   -1.4061374578    0.3362272191
H       -0.2766013143    2.1146290334    1.3045555738
H        1.1046614437    1.2597843983    2.0125785048
H        1.5788330011    0.2351776927    0.0138959184
14   
torsion grid (150,)
C        0.0867207252   -1.2238497203   -1.7911548739
C       -0.3591204730   -0.6213527263   -0.4559333114
C        0.1651247055    1.1425557497    1.3953147625
C        0.5482130538    0.4987319894    0.0480215036
Cl      -0.7155684794    0.0346991816    2.5382834186
Cl       0.5372383470    1.8779933093   -1.1688044052
H        1.1154954687   -1.5974827089   -1.7312279467
H       -0.5588837535   -2.0667776708   -2.0561974974
H        0.0403804705   -0.4929507601   -2.6021736874
H       -1.3874033516   -0.2498587037   -0.5220854952
H       -0.3576865880   -1.4029033278    0.3100289466
H       -0.5208592064    1.9712182892    1.2322854453
H        1.0477299188    1.5053306041    1.9209842480
H        1.5843172720    0.1552772151    0.0734775469
14   
torsion grid (165,)
C        0.0822484581   -1.2190115006   -1.7888972558
C       -0.3811999317   -0.5879143094   -0.4729527406
C        0.1427995445    1.1458140631    1.3810565112
C        0.5649383028    0.4818650109    0.0662775036
Cl      -0.4422782216   -0.0433499748    2.6269104306
Cl       0.6602504475    1.8690368580   -1.1371941315
H        1.0844207065   -1.6508670690   -1.6865019100
H       -0.5990950195   -2.0239641282   -2.0809027970
H        0.1115109683   -0.4878633457   -2.6006437673
H       -1.3822384920   -0.1554034450   -0.5826909546
H       -0.4565750287   -1.3653835046    0.2934395691
H       -0.6950844846    1.8203893959    1.2091083884
H        0.9691581575    1.6982368592    1.8268097496
H        1.5822476282    0.0919214206    0.1409717082
14   
torsion grid (180,)
C        0.1010652535   -1.2253008300   -1.7841707190
C       -0.4054738460   -0.5500870925   -0.5068582463
C        0.1152170661    1.1168548350    1.3864960561
C        0.5637105217    0.4726571263    0.0779997736
Cl      -0.1411451037   -0.1277061510    2.6881221631
Cl       0.7649147464    1.8767740374   -1.0902784865
H        1.0627115289   -1.7216616345   -1.6114306666
H       -0.6108794520   -1.9857701227   -2.1191854502
H        0.2336531543   -0.5039703517   -2.5947753825
H       -1.3691907653   -0.0597174789   -0.6870146274
H       -0.5742597276   -1.3084555040    0.2647122105
H       -0.8358086755    1.6344673698    1.2584575870
H        0.8656101262    1.8121741261    1.7601555883
H        1.5625140332    0.0453493863    0.1897098554
