
  -OEChem-05262117483D

 24 24  0     1  0  0  0  0  0999 V2000
    0.1361   -0.8904   -1.5998 C   0  0  0  0  0  0  0  0  0  0  0  0
    1.0202    1.2578   -0.6789 C   0  0  0  0  0  0  0  0  0  0  0  0
   -0.9984   -0.9380    0.6083 C   0  0  0  0  0  0  0  0  0  0  0  0
    1.1859   -0.2502   -0.6700 C   0  0  1  0  0  0  0  0  0  0  0  0
   -1.1164   -1.3626   -0.8595 C   0  0  1  0  0  0  0  0  0  0  0  0
   -3.6715   -1.4553   -0.9465 C   0  0  0  0  0  0  0  0  0  0  0  0
    2.1228    3.3310   -0.4560 C   0  0  0  0  0  0  0  0  0  0  0  0
   -2.3942   -0.8746   -1.5616 C   0  0  0  0  0  0  0  0  0  0  0  0
    0.3241   -1.0215   -2.7911 O   0  0  0  0  0  0  0  0  0  0  0  0
   -0.0560    1.8213   -0.7783 O   0  0  0  0  0  0  0  0  0  0  0  0
    2.1991    1.8888   -0.5331 O   0  0  0  0  0  0  0  0  0  0  0  0
    0.8033   -0.8985    1.0044 S   0  0  0  0  0  0  0  0  0  0  0  0
   -1.4241    0.0553    0.7685 H   0  0  0  0  0  0  0  0  0  0  0  0
   -1.4694   -1.6445    1.2936 H   0  0  0  0  0  0  0  0  0  0  0  0
    2.1946   -0.5365   -0.9674 H   0  0  0  0  0  0  0  0  0  0  0  0
   -1.0781   -2.4596   -0.9106 H   0  0  0  0  0  0  0  0  0  0  0  0
   -3.6649   -2.5510   -0.9802 H   0  0  0  0  0  0  0  0  0  0  0  0
   -4.5557   -1.1099   -1.4917 H   0  0  0  0  0  0  0  0  0  0  0  0
   -3.7926   -1.1540    0.0998 H   0  0  0  0  0  0  0  0  0  0  0  0
    3.1525    3.6684   -0.3438 H   0  0  0  0  0  0  0  0  0  0  0  0
    1.5207    3.6295    0.4051 H   0  0  0  0  0  0  0  0  0  0  0  0
    1.6784    3.7347   -1.3681 H   0  0  0  0  0  0  0  0  0  0  0  0
   -2.4157    0.2201   -1.5210 H   0  0  0  0  0  0  0  0  0  0  0  0
   -2.3247   -1.1518   -2.6182 H   0  0  0  0  0  0  0  0  0  0  0  0
  1  4  1  0  0  0  0
  1  5  1  0  0  0  0
  1  9  2  0  0  0  0
  2  4  1  0  0  0  0
  2 10  2  0  0  0  0
  2 11  1  0  0  0  0
  3  5  1  0  0  0  0
  3 12  1  0  0  0  0
  3 13  1  0  0  0  0
  3 14  1  0  0  0  0
  4 12  1  0  0  0  0
  4 15  1  0  0  0  0
  5  8  1  0  0  0  0
  5 16  1  0  0  0  0
  6  8  1  0  0  0  0
  6 17  1  0  0  0  0
  6 18  1  0  0  0  0
  6 19  1  0  0  0  0
  7 11  1  0  0  0  0
  7 20  1  0  0  0  0
  7 21  1  0  0  0  0
  7 22  1  0  0  0  0
  8 23  1  0  0  0  0
  8 24  1  0  0  0  0
M  END
$$$$
