47
0 1 C14H23NO8S
C                     1.827267302643     0.784542029677    -1.135576553179
C                    -0.172232195774     0.822119019825     1.239790125372
C                    -0.526002978214    -0.547422452420    -3.274795080954
C                    -0.541180103414     1.337034973461    -2.005151772499
C                     0.269811372733    -0.965004174644    -2.039802301546
C                     0.349666997296     0.362690175453    -1.192512861859
C                     4.369045910290     1.943530647390     0.103284696851
C                     3.931085774771     0.054343044009     1.729981512114
C                     4.498179067054    -0.479306793613    -0.667251520214
C                     1.202115480861     2.974134063283     2.829199294001
C                     0.286577400135     4.419464777192     0.979921193369
C                    -1.309757433448     3.278278617490     2.567597894020
C                     3.834305237350     0.522099454894     0.278803098979
C                     0.041797199571     3.192585543865     1.857640164206
N                    -0.223727192160     0.007418619985     0.100773184767
O                     2.387603012530     1.235512108631    -2.118988167680
O                    -0.307952619250     0.390844757899     2.364794352895
O                    -1.490311464746    -2.113716319095     0.992704125073
O                     1.025150900917    -2.207263620801     0.716100831634
O                    -1.355949878387     0.521130240374    -2.842945492273
O                    -0.492094784251    -1.925833733774    -1.283990461534
O                     2.366350599570     0.499867259744     0.042419691891
O                     0.003114504224     2.095993539297     0.855074742436
S                    -0.279869242889    -1.699248550751     0.327151697630
H                     0.173888377566    -0.218044310469    -4.056060842225
H                    -1.155300114968    -1.354424821417    -3.652866585801
H                    -1.190096829219     1.925668974449    -1.360593408411
H                     0.101152938209     1.993282020741    -2.603277619823
H                     1.251701248204    -1.386140078561    -2.263465246301
H                     4.304138991585     2.271085556887    -0.934897473343
H                     3.811493878911     2.644206757098     0.731687275406
H                     5.417699698426     1.971502928287     0.416128591020
H                     3.461928377804    -0.926053969633     1.844407415998
H                     3.424900774144     0.755826365926     2.398317602188
H                     4.981432067422    -0.014746808876     2.028064928759
H                     4.036818831698    -1.465054635538    -0.555630652429
H                     4.423889153765    -0.159157290545    -1.707939476795
H                     5.558077553410    -0.567982775673    -0.409547378096
H                     1.046121643432     2.090643605323     3.448370503118
H                     2.141265670982     2.863992335762     2.280721519345
H                     1.289905408600     3.848850117494     3.481379328661
H                    -0.525815252599     4.548592774478     0.258864500739
H                     1.226740033262     4.319018211183     0.429578746393
H                     0.342394684226     5.316765178111     1.602622681245
H                    -2.119621656302     3.371005678644     1.837441009691
H                    -1.490276639594     2.399782751006     3.188068402526
H                    -1.324380356648     4.166701615607     3.206850923190
