
  -OEChem-05262117483D

 47 48  0     1  0  0  0  0  0999 V2000
    1.8273    0.7845   -1.1356 C   0  0  0  0  0  0  0  0  0  0  0  0
   -0.1722    0.8221    1.2398 C   0  0  0  0  0  0  0  0  0  0  0  0
   -0.5260   -0.5474   -3.2748 C   0  0  0  0  0  0  0  0  0  0  0  0
   -0.5412    1.3370   -2.0052 C   0  0  0  0  0  0  0  0  0  0  0  0
    0.2698   -0.9650   -2.0398 C   0  0  1  0  0  0  0  0  0  0  0  0
    0.3497    0.3627   -1.1925 C   0  0  1  0  0  0  0  0  0  0  0  0
    4.3690    1.9435    0.1033 C   0  0  0  0  0  0  0  0  0  0  0  0
    3.9311    0.0543    1.7300 C   0  0  0  0  0  0  0  0  0  0  0  0
    4.4982   -0.4793   -0.6673 C   0  0  0  0  0  0  0  0  0  0  0  0
    1.2021    2.9741    2.8292 C   0  0  0  0  0  0  0  0  0  0  0  0
    0.2866    4.4195    0.9799 C   0  0  0  0  0  0  0  0  0  0  0  0
   -1.3098    3.2783    2.5676 C   0  0  0  0  0  0  0  0  0  0  0  0
    3.8343    0.5221    0.2788 C   0  0  0  0  0  0  0  0  0  0  0  0
    0.0418    3.1926    1.8576 C   0  0  0  0  0  0  0  0  0  0  0  0
   -0.2237    0.0074    0.1008 N   0  0  0  0  0  0  0  0  0  0  0  0
    2.3876    1.2355   -2.1190 O   0  0  0  0  0  0  0  0  0  0  0  0
   -0.3080    0.3908    2.3648 O   0  0  0  0  0  0  0  0  0  0  0  0
   -1.4903   -2.1137    0.9927 O   0  0  0  0  0  0  0  0  0  0  0  0
    1.0252   -2.2073    0.7161 O   0  0  0  0  0  0  0  0  0  0  0  0
   -1.3559    0.5211   -2.8429 O   0  0  0  0  0  0  0  0  0  0  0  0
   -0.4921   -1.9258   -1.2840 O   0  0  0  0  0  0  0  0  0  0  0  0
    2.3664    0.4999    0.0424 O   0  0  0  0  0  0  0  0  0  0  0  0
    0.0031    2.0960    0.8551 O   0  0  0  0  0  0  0  0  0  0  0  0
   -0.2799   -1.6992    0.3272 S   0  0  0  0  0  0  0  0  0  0  0  0
    0.1739   -0.2180   -4.0561 H   0  0  0  0  0  0  0  0  0  0  0  0
   -1.1553   -1.3544   -3.6529 H   0  0  0  0  0  0  0  0  0  0  0  0
   -1.1901    1.9257   -1.3606 H   0  0  0  0  0  0  0  0  0  0  0  0
    0.1012    1.9933   -2.6033 H   0  0  0  0  0  0  0  0  0  0  0  0
    1.2517   -1.3861   -2.2635 H   0  0  0  0  0  0  0  0  0  0  0  0
    4.3041    2.2711   -0.9349 H   0  0  0  0  0  0  0  0  0  0  0  0
    3.8115    2.6442    0.7317 H   0  0  0  0  0  0  0  0  0  0  0  0
    5.4177    1.9715    0.4161 H   0  0  0  0  0  0  0  0  0  0  0  0
    3.4619   -0.9261    1.8444 H   0  0  0  0  0  0  0  0  0  0  0  0
    3.4249    0.7558    2.3983 H   0  0  0  0  0  0  0  0  0  0  0  0
    4.9814   -0.0147    2.0281 H   0  0  0  0  0  0  0  0  0  0  0  0
    4.0368   -1.4651   -0.5556 H   0  0  0  0  0  0  0  0  0  0  0  0
    4.4239   -0.1592   -1.7079 H   0  0  0  0  0  0  0  0  0  0  0  0
    5.5581   -0.5680   -0.4095 H   0  0  0  0  0  0  0  0  0  0  0  0
    1.0461    2.0906    3.4484 H   0  0  0  0  0  0  0  0  0  0  0  0
    2.1413    2.8640    2.2807 H   0  0  0  0  0  0  0  0  0  0  0  0
    1.2899    3.8489    3.4814 H   0  0  0  0  0  0  0  0  0  0  0  0
   -0.5258    4.5486    0.2589 H   0  0  0  0  0  0  0  0  0  0  0  0
    1.2267    4.3190    0.4296 H   0  0  0  0  0  0  0  0  0  0  0  0
    0.3424    5.3168    1.6026 H   0  0  0  0  0  0  0  0  0  0  0  0
   -2.1196    3.3710    1.8374 H   0  0  0  0  0  0  0  0  0  0  0  0
   -1.4903    2.3998    3.1881 H   0  0  0  0  0  0  0  0  0  0  0  0
   -1.3244    4.1667    3.2069 H   0  0  0  0  0  0  0  0  0  0  0  0
  1  6  1  0  0  0  0
  1 16  2  0  0  0  0
  1 22  1  0  0  0  0
  2 15  1  0  0  0  0
  2 17  2  0  0  0  0
  2 23  1  0  0  0  0
  3  5  1  0  0  0  0
  3 20  1  0  0  0  0
  3 25  1  0  0  0  0
  3 26  1  0  0  0  0
  4  6  1  0  0  0  0
  4 20  1  0  0  0  0
  4 27  1  0  0  0  0
  4 28  1  0  0  0  0
  5  6  1  0  0  0  0
  5 21  1  0  0  0  0
  5 29  1  0  0  0  0
  6 15  1  0  0  0  0
  7 13  1  0  0  0  0
  7 30  1  0  0  0  0
  7 31  1  0  0  0  0
  7 32  1  0  0  0  0
  8 13  1  0  0  0  0
  8 33  1  0  0  0  0
  8 34  1  0  0  0  0
  8 35  1  0  0  0  0
  9 13  1  0  0  0  0
  9 36  1  0  0  0  0
  9 37  1  0  0  0  0
  9 38  1  0  0  0  0
 10 14  1  0  0  0  0
 10 39  1  0  0  0  0
 10 40  1  0  0  0  0
 10 41  1  0  0  0  0
 11 14  1  0  0  0  0
 11 42  1  0  0  0  0
 11 43  1  0  0  0  0
 11 44  1  0  0  0  0
 12 14  1  0  0  0  0
 12 45  1  0  0  0  0
 12 46  1  0  0  0  0
 12 47  1  0  0  0  0
 13 22  1  0  0  0  0
 14 23  1  0  0  0  0
 15 24  1  0  0  0  0
 18 24  2  0  0  0  0
 19 24  2  0  0  0  0
 21 24  1  0  0  0  0
M  END
$$$$
