
  -OEChem-05262117483D

 44 46  0     1  0  0  0  0  0999 V2000
    1.5866   -4.8060    2.2397 C   0  0  0  0  0  0  0  0  0  0  0  0
   -1.6623   -0.2657   -1.1130 C   0  0  0  0  0  0  0  0  0  0  0  0
    1.0417   -3.5235    2.1045 C   0  0  0  0  0  0  0  0  0  0  0  0
   -2.7160    0.6111   -1.3242 C   0  0  0  0  0  0  0  0  0  0  0  0
    2.8001   -5.1185    1.6271 C   0  0  0  0  0  0  0  0  0  0  0  0
   -1.4411    2.3510   -0.2162 C   0  0  0  0  0  0  0  0  0  0  0  0
    2.9001   -2.8487    0.7295 C   0  0  0  0  0  0  0  0  0  0  0  0
   -0.5029    0.1306   -0.4208 C   0  0  0  0  0  0  0  0  0  0  0  0
    1.6832   -2.5331    1.3512 C   0  0  0  0  0  0  0  0  0  0  0  0
   -0.3816    1.4613    0.0187 C   0  0  0  0  0  0  0  0  0  0  0  0
   -2.6105    1.9335   -0.8662 C   0  0  0  0  0  0  0  0  0  0  0  0
    3.4430   -4.1211    0.8883 C   0  0  0  0  0  0  0  0  0  0  0  0
    0.5327   -0.9310   -0.2165 C   0  0  0  0  0  0  0  0  0  0  0  0
    0.8934    2.0148    0.6270 C   0  0  0  0  0  0  0  0  0  0  0  0
    1.3990    1.3215    1.9005 C   0  0  0  0  0  0  0  0  0  0  0  0
    2.0422   -0.0485    1.6734 C   0  0  0  0  0  0  0  0  0  0  0  0
    1.0673   -1.1579    1.2131 C   0  0  2  0  0  0  0  0  0  0  0  0
   -3.6214    4.0971   -0.6854 C   0  0  0  0  0  0  0  0  0  0  0  0
    6.1964   -4.1804    1.4892 C   0  0  0  0  0  0  0  0  0  0  0  0
    0.8573   -1.6666   -1.1373 O   0  0  0  0  0  0  0  0  0  0  0  0
    5.0893   -5.9251   -0.1693 O   0  0  0  0  0  0  0  0  0  0  0  0
    5.2996   -3.4752   -0.9036 O   0  0  0  0  0  0  0  0  0  0  0  0
   -3.6858    2.7380   -1.1107 O   0  0  0  0  0  0  0  0  0  0  0  0
    5.0361   -4.4857    0.1328 S   0  0  0  0  0  0  0  0  0  0  0  0
    1.0601   -5.5617    2.8162 H   0  0  0  0  0  0  0  0  0  0  0  0
   -1.7248   -1.2860   -1.4796 H   0  0  0  0  0  0  0  0  0  0  0  0
    0.0936   -3.2946    2.5865 H   0  0  0  0  0  0  0  0  0  0  0  0
   -3.6187    0.3023   -1.8426 H   0  0  0  0  0  0  0  0  0  0  0  0
    3.2321   -6.1122    1.6960 H   0  0  0  0  0  0  0  0  0  0  0  0
   -1.3292    3.3816    0.1024 H   0  0  0  0  0  0  0  0  0  0  0  0
    3.4156   -2.1279    0.1036 H   0  0  0  0  0  0  0  0  0  0  0  0
    1.6890    1.9814   -0.1297 H   0  0  0  0  0  0  0  0  0  0  0  0
    0.7333    3.0744    0.8485 H   0  0  0  0  0  0  0  0  0  0  0  0
    2.1508    1.9714    2.3636 H   0  0  0  0  0  0  0  0  0  0  0  0
    0.5774    1.2318    2.6224 H   0  0  0  0  0  0  0  0  0  0  0  0
    2.8604    0.0457    0.9494 H   0  0  0  0  0  0  0  0  0  0  0  0
    2.4959   -0.3857    2.6117 H   0  0  0  0  0  0  0  0  0  0  0  0
    0.1915   -1.1061    1.8718 H   0  0  0  0  0  0  0  0  0  0  0  0
   -4.5729    4.5444   -0.9751 H   0  0  0  0  0  0  0  0  0  0  0  0
   -2.8026    4.6318   -1.1818 H   0  0  0  0  0  0  0  0  0  0  0  0
   -3.5013    4.1697    0.4024 H   0  0  0  0  0  0  0  0  0  0  0  0
    7.1913   -4.3916    1.0912 H   0  0  0  0  0  0  0  0  0  0  0  0
    6.1172   -3.1359    1.7935 H   0  0  0  0  0  0  0  0  0  0  0  0
    5.9627   -4.8537    2.3150 H   0  0  0  0  0  0  0  0  0  0  0  0
  1  3  1  0  0  0  0
  1  5  2  0  0  0  0
  1 25  1  0  0  0  0
  2  4  2  0  0  0  0
  2  8  1  0  0  0  0
  2 26  1  0  0  0  0
  3  9  2  0  0  0  0
  3 27  1  0  0  0  0
  4 11  1  0  0  0  0
  4 28  1  0  0  0  0
  5 12  1  0  0  0  0
  5 29  1  0  0  0  0
  6 10  1  0  0  0  0
  6 11  2  0  0  0  0
  6 30  1  0  0  0  0
  7  9  1  0  0  0  0
  7 12  2  0  0  0  0
  7 31  1  0  0  0  0
  8 10  2  0  0  0  0
  8 13  1  0  0  0  0
  9 17  1  0  0  0  0
 10 14  1  0  0  0  0
 11 23  1  0  0  0  0
 12 24  1  0  0  0  0
 13 17  1  0  0  0  0
 13 20  2  0  0  0  0
 14 15  1  0  0  0  0
 14 32  1  0  0  0  0
 14 33  1  0  0  0  0
 15 16  1  0  0  0  0
 15 34  1  0  0  0  0
 15 35  1  0  0  0  0
 16 17  1  0  0  0  0
 16 36  1  0  0  0  0
 16 37  1  0  0  0  0
 17 38  1  0  0  0  0
 18 23  1  0  0  0  0
 18 39  1  0  0  0  0
 18 40  1  0  0  0  0
 18 41  1  0  0  0  0
 19 24  1  0  0  0  0
 19 42  1  0  0  0  0
 19 43  1  0  0  0  0
 19 44  1  0  0  0  0
 21 24  2  0  0  0  0
 22 24  2  0  0  0  0
M  END
$$$$
