
  -OEChem-05262117483D

 20 21  0     0  0  0  0  0  0999 V2000
    1.9316   -1.1211   -0.0585 C   0  0  0  0  0  0  0  0  0  0  0  0
    0.7609   -0.6546    0.5345 C   0  0  0  0  0  0  0  0  0  0  0  0
    5.1678   -5.2120    1.5571 C   0  0  0  0  0  0  0  0  0  0  0  0
    6.3415   -5.2002    0.8362 C   0  0  0  0  0  0  0  0  0  0  0  0
    3.0184   -1.5610    0.7132 C   0  0  0  0  0  0  0  0  0  0  0  0
    0.6867   -0.6039    1.9234 C   0  0  0  0  0  0  0  0  0  0  0  0
    2.9207   -1.4804    2.1060 C   0  0  0  0  0  0  0  0  0  0  0  0
    1.7618   -1.0036    2.7165 C   0  0  0  0  0  0  0  0  0  0  0  0
    4.8752   -3.3037    0.4882 C   0  0  0  0  0  0  0  0  0  0  0  0
    4.2312   -2.0648   -0.0054 C   0  0  0  0  0  0  0  0  0  0  0  0
    4.3481   -4.1376    1.3534 N   0  0  0  0  0  0  0  0  0  0  0  0
    4.6445   -1.5083   -1.0180 O   0  0  0  0  0  0  0  0  0  0  0  0
   -0.4246   -0.1516    2.5308 F   0  0  0  0  0  0  0  0  0  0  0  0
    3.9560   -1.7911    2.9015 F   0  0  0  0  0  0  0  0  0  0  0  0
    1.6908   -0.9125    4.0533 F   0  0  0  0  0  0  0  0  0  0  0  0
    6.4294   -3.7943   -0.1536 S   0  0  0  0  0  0  0  0  0  0  0  0
    2.0196   -1.1613   -1.1391 H   0  0  0  0  0  0  0  0  0  0  0  0
   -0.0901   -0.3288   -0.0544 H   0  0  0  0  0  0  0  0  0  0  0  0
    4.8690   -5.9924    2.2484 H   0  0  0  0  0  0  0  0  0  0  0  0
    7.1361   -5.9355    0.8450 H   0  0  0  0  0  0  0  0  0  0  0  0
  1  2  1  0  0  0  0
  1  5  2  0  0  0  0
  1 17  1  0  0  0  0
  2  6  2  0  0  0  0
  2 18  1  0  0  0  0
  3  4  2  0  0  0  0
  3 11  1  0  0  0  0
  3 19  1  0  0  0  0
  4 16  1  0  0  0  0
  4 20  1  0  0  0  0
  5  7  1  0  0  0  0
  5 10  1  0  0  0  0
  6  8  1  0  0  0  0
  6 13  1  0  0  0  0
  7  8  2  0  0  0  0
  7 14  1  0  0  0  0
  8 15  1  0  0  0  0
  9 10  1  0  0  0  0
  9 11  2  0  0  0  0
  9 16  1  0  0  0  0
 10 12  2  0  0  0  0
M  END
$$$$
