16
0 1 C6ClH3N2O4
C                     1.484519419088    -0.006165041507     1.848707441219
C                     1.620945754379    -0.663555460819     3.062701828604
C                     0.326058962566    -0.225133030797     1.098682339218
C                    -0.654451326750    -1.102576205055     1.572723507371
C                     0.575139722819    -1.511215319261     3.457439462778
C                    -1.893070970341    -1.503570534228     0.796156908523
N                    -0.519328910565    -1.731293950973     2.746072878017
N                     0.159015518679     0.488769476993    -0.172706529059
O                    -0.930334092499     0.384755960245    -0.743194196810
O                    -1.897480328866    -2.413900706852     0.000436333069
O                     1.114979007601     1.152652360919    -0.582927602662
O                    -2.970070035223    -0.794313006408     1.177315045830
Cl                    0.698628754831    -2.343968096926     4.985039479050
H                     2.245327194686     0.669709738861     1.474878175442
H                     2.496116329480    -0.529860748873     3.688272732278
H                    -3.728661574329    -1.126440594393     0.657261522327
