
  -OEChem-05262117483D

 32 33  0     0  0  0  0  0  0999 V2000
    4.0382   -2.4472    0.2342 C   0  0  0  0  0  0  0  0  0  0  0  0
    2.4537   -2.3547    2.1146 C   0  0  0  0  0  0  0  0  0  0  0  0
    2.2818   -0.7184    0.3190 C   0  0  0  0  0  0  0  0  0  0  0  0
    1.3671   -1.7578    2.7482 C   0  0  0  0  0  0  0  0  0  0  0  0
    1.1996   -0.1288    0.9562 C   0  0  0  0  0  0  0  0  0  0  0  0
   -4.2647    4.6756    1.9179 C   0  0  0  0  0  0  0  0  0  0  0  0
    2.9187   -1.8379    0.8938 C   0  0  0  0  0  0  0  0  0  0  0  0
    0.7254   -0.6409    2.1825 C   0  0  0  0  0  0  0  0  0  0  0  0
   -3.2006    4.2328    1.1229 C   0  0  0  0  0  0  0  0  0  0  0  0
   -4.5276    3.9807    3.1056 C   0  0  0  0  0  0  0  0  0  0  0  0
   -2.7878    2.5888    2.6290 C   0  0  0  0  0  0  0  0  0  0  0  0
   -0.4128   -0.0384    2.8741 C   0  0  0  0  0  0  0  0  0  0  0  0
   -2.8324    4.9067   -0.1712 C   0  0  0  0  0  0  0  0  0  0  0  0
   -5.6455    4.3707    4.0346 C   0  0  0  0  0  0  0  0  0  0  0  0
    4.9478   -2.9423   -0.3019 N   0  0  0  0  0  0  0  0  0  0  0  0
   -2.4507    3.1773    1.4789 N   0  0  0  0  0  0  0  0  0  0  0  0
   -3.7834    2.9263    3.4674 N   0  0  0  0  0  0  0  0  0  0  0  0
   -1.0215    0.9852    2.3796 N   0  0  0  0  0  0  0  0  0  0  0  0
   -2.0590    1.4911    3.0636 N   0  0  0  0  0  0  0  0  0  0  0  0
    2.9450   -3.2165    2.5558 H   0  0  0  0  0  0  0  0  0  0  0  0
    2.6463   -0.3239   -0.6247 H   0  0  0  0  0  0  0  0  0  0  0  0
    1.0111   -2.1618    3.6931 H   0  0  0  0  0  0  0  0  0  0  0  0
    0.7026    0.7328    0.5222 H   0  0  0  0  0  0  0  0  0  0  0  0
   -4.8666    5.5291    1.6241 H   0  0  0  0  0  0  0  0  0  0  0  0
   -0.7226   -0.4931    3.8252 H   0  0  0  0  0  0  0  0  0  0  0  0
   -1.7976    5.2602   -0.1242 H   0  0  0  0  0  0  0  0  0  0  0  0
   -2.8886    4.1868   -0.9937 H   0  0  0  0  0  0  0  0  0  0  0  0
   -3.4884    5.7520   -0.3915 H   0  0  0  0  0  0  0  0  0  0  0  0
   -6.3362    3.5312    4.1616 H   0  0  0  0  0  0  0  0  0  0  0  0
   -5.2429    4.6103    5.0239 H   0  0  0  0  0  0  0  0  0  0  0  0
   -6.2010    5.2335    3.6598 H   0  0  0  0  0  0  0  0  0  0  0  0
   -2.3652    1.0859    3.9488 H   0  0  0  0  0  0  0  0  0  0  0  0
  1  7  1  0  0  0  0
  1 15  3  0  0  0  0
  2  4  1  0  0  0  0
  2  7  2  0  0  0  0
  2 20  1  0  0  0  0
  3  5  2  0  0  0  0
  3  7  1  0  0  0  0
  3 21  1  0  0  0  0
  4  8  2  0  0  0  0
  4 22  1  0  0  0  0
  5  8  1  0  0  0  0
  5 23  1  0  0  0  0
  6  9  1  0  0  0  0
  6 10  2  0  0  0  0
  6 24  1  0  0  0  0
  8 12  1  0  0  0  0
  9 13  1  0  0  0  0
  9 16  2  0  0  0  0
 10 14  1  0  0  0  0
 10 17  1  0  0  0  0
 11 16  1  0  0  0  0
 11 17  2  0  0  0  0
 11 19  1  0  0  0  0
 12 18  2  0  0  0  0
 12 25  1  0  0  0  0
 13 26  1  0  0  0  0
 13 27  1  0  0  0  0
 13 28  1  0  0  0  0
 14 29  1  0  0  0  0
 14 30  1  0  0  0  0
 14 31  1  0  0  0  0
 18 19  1  0  0  0  0
 19 32  1  0  0  0  0
M  END
$$$$
