20
0 1 C10F3H4NOS
C                     1.467334241002    -1.371808753172    -0.330115709147
C                     0.394229200710    -0.916659735326     0.431656153244
C                     7.356076249743    -1.225111649149    -0.772383098448
C                     7.071158809726     0.017065578745    -0.251895258042
C                     2.724749872817    -1.612976906514     0.246231691318
C                     0.572661665318    -0.724552040401     1.799262863647
C                     2.865754517040    -1.425963796393     1.624560637990
C                     1.799990164805    -0.984197723122     2.407723594813
C                     5.178829608248    -1.491929455818    -0.520209292107
C                     3.831089517401    -2.119661757351    -0.637450429336
N                     6.285886139782    -2.059944585386    -0.929206876248
O                     3.605759727934    -2.975253251917    -1.478596100439
F                    -0.444397909669    -0.294443317740     2.565380662674
F                     4.023247081986    -1.709773943680     2.249662008017
F                     1.951906268484    -0.827377093927     3.730605824319
S                     5.388119613118     0.149484703733     0.078266447189
H                     1.349147136008    -1.546585232975    -1.394427866822
H                    -0.576034587941    -0.712491615511    -0.009157983142
H                     8.346352425105    -1.564796861388    -1.056417304659
H                     7.751139470780     0.837072604696    -0.059528377411
