
  -OEChem-05262117483D

 20 21  0     0  0  0  0  0  0999 V2000
    1.7515   -0.9357   -0.1823 C   0  0  0  0  0  0  0  0  0  0  0  0
    0.6999   -0.3189    0.4917 C   0  0  0  0  0  0  0  0  0  0  0  0
    4.7903   -0.5139   -3.2152 C   0  0  0  0  0  0  0  0  0  0  0  0
    5.6375   -1.5487   -3.5410 C   0  0  0  0  0  0  0  0  0  0  0  0
    2.7735   -1.6094    0.5091 C   0  0  0  0  0  0  0  0  0  0  0  0
    0.6770   -0.3522    1.8819 C   0  0  0  0  0  0  0  0  0  0  0  0
    2.7168   -1.6301    1.9125 C   0  0  0  0  0  0  0  0  0  0  0  0
    1.6827   -0.9977    2.6004 C   0  0  0  0  0  0  0  0  0  0  0  0
    4.3815   -1.8274   -1.4850 C   0  0  0  0  0  0  0  0  0  0  0  0
    3.8552   -2.3594   -0.1978 C   0  0  0  0  0  0  0  0  0  0  0  0
    4.0871   -0.6809   -2.0534 N   0  0  0  0  0  0  0  0  0  0  0  0
    4.3245   -3.4006    0.2496 O   0  0  0  0  0  0  0  0  0  0  0  0
   -0.3169    0.2440    2.5628 F   0  0  0  0  0  0  0  0  0  0  0  0
    3.6692   -2.2180    2.6457 F   0  0  0  0  0  0  0  0  0  0  0  0
    1.6582   -1.0097    3.9415 F   0  0  0  0  0  0  0  0  0  0  0  0
    5.5644   -2.7900   -2.3509 S   0  0  0  0  0  0  0  0  0  0  0  0
    1.7827   -0.9004   -1.2631 H   0  0  0  0  0  0  0  0  0  0  0  0
   -0.0971    0.1907   -0.0395 H   0  0  0  0  0  0  0  0  0  0  0  0
    4.6554    0.3903   -3.7987 H   0  0  0  0  0  0  0  0  0  0  0  0
    6.2862   -1.6299   -4.4040 H   0  0  0  0  0  0  0  0  0  0  0  0
  1  2  1  0  0  0  0
  1  5  2  0  0  0  0
  1 17  1  0  0  0  0
  2  6  2  0  0  0  0
  2 18  1  0  0  0  0
  3  4  2  0  0  0  0
  3 11  1  0  0  0  0
  3 19  1  0  0  0  0
  4 16  1  0  0  0  0
  4 20  1  0  0  0  0
  5  7  1  0  0  0  0
  5 10  1  0  0  0  0
  6  8  1  0  0  0  0
  6 13  1  0  0  0  0
  7  8  2  0  0  0  0
  7 14  1  0  0  0  0
  8 15  1  0  0  0  0
  9 10  1  0  0  0  0
  9 11  2  0  0  0  0
  9 16  1  0  0  0  0
 10 12  2  0  0  0  0
M  END
$$$$
