
  -OEChem-05262117483D

 40 41  0     0  0  0  0  0  0999 V2000
    0.4004   -3.4227   -8.3911 C   0  0  0  0  0  0  0  0  0  0  0  0
   -0.7591   -2.6710   -8.2678 C   0  0  0  0  0  0  0  0  0  0  0  0
    1.3430   -3.5017   -7.3490 C   0  0  0  0  0  0  0  0  0  0  0  0
   -0.1208   -2.0613   -5.9938 C   0  0  0  0  0  0  0  0  0  0  0  0
   -1.0175   -1.9697   -7.0774 C   0  0  0  0  0  0  0  0  0  0  0  0
    1.0439   -2.8287   -6.1595 C   0  0  0  0  0  0  0  0  0  0  0  0
    2.6402   -4.3013   -7.5778 C   0  0  0  0  0  0  0  0  0  0  0  0
   -0.0416    1.8462   -1.3472 C   0  0  0  0  0  0  0  0  0  0  0  0
   -0.0315    0.3814   -0.8112 C   0  0  0  0  0  0  0  0  0  0  0  0
    0.1430    1.7353   -2.8801 C   0  0  0  0  0  0  0  0  0  0  0  0
    0.1998   -0.5171   -2.0465 C   0  0  0  0  0  0  0  0  0  0  0  0
   -0.3341    0.3143   -3.2237 C   0  0  0  0  0  0  0  0  0  0  0  0
   -2.8997    1.6244   -8.1312 C   0  0  0  0  0  0  0  0  0  0  0  0
    0.1266   -0.1631   -4.5857 C   0  0  0  0  0  0  0  0  0  0  0  0
   -1.8088    0.5651   -8.0027 C   0  0  0  0  0  0  0  0  0  0  0  0
    3.6175   -3.5816   -7.8967 O   0  5  0  0  0  0  0  0  0  0  0  0
    2.5158   -5.5420   -7.4547 O   0  0  0  0  0  0  0  0  0  0  0  0
   -3.4711   -1.5002   -7.9758 O   0  0  0  0  0  0  0  0  0  0  0  0
   -2.8324   -0.4319   -5.7547 O   0  0  0  0  0  0  0  0  0  0  0  0
   -0.4008   -1.4827   -4.7846 O   0  0  0  0  0  0  0  0  0  0  0  0
   -2.4465   -0.8926   -7.1005 S   0  0  0  0  0  0  0  0  0  0  0  0
    2.1470   -2.9453   -4.7917 Cl  0  0  0  0  0  0  0  0  0  0  0  0
    0.5965   -3.9748   -9.3062 H   0  0  0  0  0  0  0  0  0  0  0  0
   -1.4842   -2.6274   -9.0753 H   0  0  0  0  0  0  0  0  0  0  0  0
   -0.9966    2.3299   -1.1152 H   0  0  0  0  0  0  0  0  0  0  0  0
    0.7415    2.4604   -0.8905 H   0  0  0  0  0  0  0  0  0  0  0  0
    0.7351    0.2264   -0.0450 H   0  0  0  0  0  0  0  0  0  0  0  0
   -0.9946    0.1444   -0.3462 H   0  0  0  0  0  0  0  0  0  0  0  0
   -0.3995    2.5121   -3.4296 H   0  0  0  0  0  0  0  0  0  0  0  0
    1.2055    1.8327   -3.1405 H   0  0  0  0  0  0  0  0  0  0  0  0
    1.2713   -0.6997   -2.1958 H   0  0  0  0  0  0  0  0  0  0  0  0
   -0.2841   -1.4933   -1.9707 H   0  0  0  0  0  0  0  0  0  0  0  0
   -1.4309    0.2863   -3.2198 H   0  0  0  0  0  0  0  0  0  0  0  0
   -3.7608    1.2294   -8.6768 H   0  0  0  0  0  0  0  0  0  0  0  0
   -3.2358    1.9565   -7.1454 H   0  0  0  0  0  0  0  0  0  0  0  0
   -2.5107    2.4908   -8.6767 H   0  0  0  0  0  0  0  0  0  0  0  0
    1.2230   -0.1898   -4.6456 H   0  0  0  0  0  0  0  0  0  0  0  0
   -0.2517    0.5059   -5.3692 H   0  0  0  0  0  0  0  0  0  0  0  0
   -0.9431    0.9261   -7.4422 H   0  0  0  0  0  0  0  0  0  0  0  0
   -1.4685    0.1948   -8.9728 H   0  0  0  0  0  0  0  0  0  0  0  0
  1  2  1  0  0  0  0
  1  3  2  0  0  0  0
  1 23  1  0  0  0  0
  2  5  2  0  0  0  0
  2 24  1  0  0  0  0
  3  6  1  0  0  0  0
  3  7  1  0  0  0  0
  4  5  1  0  0  0  0
  4  6  2  0  0  0  0
  4 20  1  0  0  0  0
  5 21  1  0  0  0  0
  6 22  1  0  0  0  0
  7 16  1  0  0  0  0
  7 17  2  0  0  0  0
  8  9  1  0  0  0  0
  8 10  1  0  0  0  0
  8 25  1  0  0  0  0
  8 26  1  0  0  0  0
  9 11  1  0  0  0  0
  9 27  1  0  0  0  0
  9 28  1  0  0  0  0
 10 12  1  0  0  0  0
 10 29  1  0  0  0  0
 10 30  1  0  0  0  0
 11 12  1  0  0  0  0
 11 31  1  0  0  0  0
 11 32  1  0  0  0  0
 12 14  1  0  0  0  0
 12 33  1  0  0  0  0
 13 15  1  0  0  0  0
 13 34  1  0  0  0  0
 13 35  1  0  0  0  0
 13 36  1  0  0  0  0
 14 20  1  0  0  0  0
 14 37  1  0  0  0  0
 14 38  1  0  0  0  0
 15 21  1  0  0  0  0
 15 39  1  0  0  0  0
 15 40  1  0  0  0  0
 18 21  2  0  0  0  0
 19 21  2  0  0  0  0
M  CHG  1  16  -1
M  END
$$$$
