29
1 1 C11FH14N2O
C                     0.182956379415     5.459336541426     2.428927619809
C                     0.063921140938     5.094088974225     3.772585510651
C                     0.688397938979     4.550155985126     1.494676287716
C                     0.450027191000     3.815679538353     4.190663876270
C                     1.084446392730     3.263262801379     1.884444688585
C                     0.947352764976     2.939848349006     3.239154847646
C                     0.927026110503    -0.119037275809     1.382377231710
C                     0.725545840495    -2.338597996008     2.002243097043
C                     2.096201183143    -1.767886925514     2.405312414728
C                     1.921300521323     2.715411794795    -0.492373200257
C                     1.645783247690     2.226387587768     0.927062041636
N                     0.039720448899    -1.097827591021     1.600739387178
N                     0.688743105398     1.073364760467     0.874268867717
O                     2.155132008356    -0.464052519667     1.723913960924
F                     1.323399733067     1.685009434491     3.637622509100
H                    -0.111888620870     6.453342982198     2.107217446145
H                    -0.324634708562     5.800813203736     4.499662461903
H                     0.784607970449     4.855975903798     0.458195072998
H                     0.376598995173     3.503237670695     5.227623964614
H                     0.785500374897    -3.038017473886     1.163565339114
H                     0.212690233037    -2.811783452860     2.840558215122
H                     2.178352410195    -1.567887203381     3.474380631960
H                     2.945930415526    -2.349400884175     2.054231625262
H                     1.012356671280     3.069010139549    -0.988042306685
H                     2.344020374342     1.904432780770    -1.090205994533
H                     2.642037204619     3.536292878621    -0.471254542128
H                     2.564240968424     1.815498015179     1.347553921012
H                    -0.931575976161    -1.054390000306     1.317169285257
H                    -0.269268706796     1.294876271770     0.620661679065
