
  -OEChem-05262117483D

 53 57  0     1  0  0  0  0  0999 V2000
    0.1247   -1.3401    0.1205 C   0  0  0  0  0  0  0  0  0  0  0  0
   -0.7976   -2.3014    0.5535 C   0  0  0  0  0  0  0  0  0  0  0  0
  -10.3281   -4.8854   -6.2427 C   0  0  0  0  0  0  0  0  0  0  0  0
   -8.2749   -3.9654   -7.1332 C   0  0  0  0  0  0  0  0  0  0  0  0
    0.2189   -1.0343   -1.2365 C   0  0  0  0  0  0  0  0  0  0  0  0
   -1.6121   -2.9364   -0.3824 C   0  0  0  0  0  0  0  0  0  0  0  0
  -10.8414   -5.0021   -7.5348 C   0  0  0  0  0  0  0  0  0  0  0  0
   -8.7782   -4.0769   -8.4275 C   0  0  0  0  0  0  0  0  0  0  0  0
   -9.0403   -4.3706   -6.0260 C   0  0  0  0  0  0  0  0  0  0  0  0
   -0.5955   -1.6692   -2.1889 C   0  0  0  0  0  0  0  0  0  0  0  0
   -1.5212   -2.6322   -1.7502 C   0  0  0  0  0  0  0  0  0  0  0  0
  -10.0602   -4.5993   -8.6191 C   0  0  0  0  0  0  0  0  0  0  0  0
   -8.4768   -4.2080   -4.6808 C   0  0  0  0  0  0  0  0  0  0  0  0
   -8.0059   -4.5150   -2.4923 C   0  0  0  0  0  0  0  0  0  0  0  0
   -4.9434   -3.4660   -2.8296 C   0  0  0  0  0  0  0  0  0  0  0  0
   -0.4334   -1.3317   -3.6595 C   0  0  0  0  0  0  0  0  0  0  0  0
   -1.6306   -1.7639   -4.5117 C   0  0  0  0  0  0  0  0  0  0  0  0
   -2.0186   -3.2052   -4.1793 C   0  0  0  0  0  0  0  0  0  0  0  0
   -8.6610   -7.4801   -3.0397 C   0  0  0  0  0  0  0  0  0  0  0  0
   -9.0304   -7.3679   -4.4981 C   0  0  0  0  0  0  0  0  0  0  0  0
   -2.4659   -3.3273   -2.7165 C   0  0  2  0  0  0  0  0  0  0  0  0
   -9.4299   -6.2770   -3.5280 C   0  0  0  0  0  0  0  0  0  0  0  0
   -6.2542   -2.7572   -2.4347 C   0  0  0  0  0  0  0  0  0  0  0  0
   -7.6483   -3.2429   -4.3768 N   0  0  0  0  0  0  0  0  0  0  0  0
   -8.7439   -5.0155   -3.5790 N   0  0  0  0  0  0  0  0  0  0  0  0
   -7.3900   -3.3985   -3.0307 N   0  0  0  0  0  0  0  0  0  0  0  0
   -3.8165   -2.7670   -2.5242 N   0  0  0  0  0  0  0  0  0  0  0  0
   -7.9364   -4.9479   -1.3492 O   0  0  0  0  0  0  0  0  0  0  0  0
   -4.9346   -4.5762   -3.3535 O   0  0  0  0  0  0  0  0  0  0  0  0
  -10.6968   -4.7523  -10.2474 Cl  0  0  0  0  0  0  0  0  0  0  0  0
    0.7653   -0.8338    0.8381 H   0  0  0  0  0  0  0  0  0  0  0  0
   -0.8771   -2.5519    1.6081 H   0  0  0  0  0  0  0  0  0  0  0  0
  -10.9468   -5.1840   -5.4039 H   0  0  0  0  0  0  0  0  0  0  0  0
   -7.2790   -3.5675   -6.9674 H   0  0  0  0  0  0  0  0  0  0  0  0
    0.9362   -0.2870   -1.5707 H   0  0  0  0  0  0  0  0  0  0  0  0
   -2.3329   -3.6838   -0.0565 H   0  0  0  0  0  0  0  0  0  0  0  0
  -11.8394   -5.3959   -7.6988 H   0  0  0  0  0  0  0  0  0  0  0  0
   -8.1823   -3.7696   -9.2810 H   0  0  0  0  0  0  0  0  0  0  0  0
   -0.2455   -0.2579   -3.7702 H   0  0  0  0  0  0  0  0  0  0  0  0
    0.4683   -1.8381   -4.0314 H   0  0  0  0  0  0  0  0  0  0  0  0
   -2.4863   -1.1035   -4.3221 H   0  0  0  0  0  0  0  0  0  0  0  0
   -1.3868   -1.6658   -5.5747 H   0  0  0  0  0  0  0  0  0  0  0  0
   -2.8242   -3.5687   -4.8219 H   0  0  0  0  0  0  0  0  0  0  0  0
   -1.1556   -3.8655   -4.3350 H   0  0  0  0  0  0  0  0  0  0  0  0
   -9.1981   -8.1822   -2.4105 H   0  0  0  0  0  0  0  0  0  0  0  0
   -7.6264   -7.3152   -2.7614 H   0  0  0  0  0  0  0  0  0  0  0  0
   -8.2390   -7.1347   -5.2028 H   0  0  0  0  0  0  0  0  0  0  0  0
   -9.8247   -7.9918   -4.8965 H   0  0  0  0  0  0  0  0  0  0  0  0
   -2.5390   -4.3883   -2.4597 H   0  0  0  0  0  0  0  0  0  0  0  0
  -10.4761   -6.2077   -3.2414 H   0  0  0  0  0  0  0  0  0  0  0  0
   -6.3755   -2.8141   -1.3492 H   0  0  0  0  0  0  0  0  0  0  0  0
   -6.2379   -1.7055   -2.7340 H   0  0  0  0  0  0  0  0  0  0  0  0
   -3.8972   -1.8752   -2.0524 H   0  0  0  0  0  0  0  0  0  0  0  0
  1  2  1  0  0  0  0
  1  5  2  0  0  0  0
  1 31  1  0  0  0  0
  2  6  2  0  0  0  0
  2 32  1  0  0  0  0
  3  7  2  0  0  0  0
  3  9  1  0  0  0  0
  3 33  1  0  0  0  0
  4  8  1  0  0  0  0
  4  9  2  0  0  0  0
  4 34  1  0  0  0  0
  5 10  1  0  0  0  0
  5 35  1  0  0  0  0
  6 11  1  0  0  0  0
  6 36  1  0  0  0  0
  7 12  1  0  0  0  0
  7 37  1  0  0  0  0
  8 12  2  0  0  0  0
  8 38  1  0  0  0  0
  9 13  1  0  0  0  0
 10 11  2  0  0  0  0
 10 16  1  0  0  0  0
 11 21  1  0  0  0  0
 12 30  1  0  0  0  0
 13 24  2  0  0  0  0
 13 25  1  0  0  0  0
 14 25  1  0  0  0  0
 14 26  1  0  0  0  0
 14 28  2  0  0  0  0
 15 23  1  0  0  0  0
 15 27  1  0  0  0  0
 15 29  2  0  0  0  0
 16 17  1  0  0  0  0
 16 39  1  0  0  0  0
 16 40  1  0  0  0  0
 17 18  1  0  0  0  0
 17 41  1  0  0  0  0
 17 42  1  0  0  0  0
 18 21  1  0  0  0  0
 18 43  1  0  0  0  0
 18 44  1  0  0  0  0
 19 20  1  0  0  0  0
 19 22  1  0  0  0  0
 19 45  1  0  0  0  0
 19 46  1  0  0  0  0
 20 22  1  0  0  0  0
 20 47  1  0  0  0  0
 20 48  1  0  0  0  0
 21 27  1  0  0  0  0
 21 49  1  0  0  0  0
 22 25  1  0  0  0  0
 22 50  1  0  0  0  0
 23 26  1  0  0  0  0
 23 51  1  0  0  0  0
 23 52  1  0  0  0  0
 24 26  1  0  0  0  0
 27 53  1  0  0  0  0
M  END
$$$$
