53
0 1 C23ClH23N4O2
C                    -1.493816708131     0.911597091659    -4.099835492364
C                    -1.312620700208     0.414971672051    -2.802479744898
C                    -8.876888901526    -6.551265722169    -5.308304803994
C                    -9.097951321298    -7.458047348838    -3.075726985884
C                    -1.966611372904     0.066816407044    -5.102869754560
C                    -1.610792701118    -0.919530177728    -2.534443084359
C                    -9.636939429828    -7.605251573965    -5.815666075600
C                    -9.856672630531    -8.515161923848    -3.572725232004
C                    -8.603817479668    -6.459738305752    -3.933952809272
C                    -2.268196852579    -1.280292830483    -4.843596649638
C                    -2.083955884902    -1.774877282383    -3.541270012541
C                   -10.126297738178    -8.578424694252    -4.942665529238
C                    -7.783488020750    -5.384908713973    -3.364428561551
C                    -6.787830076113    -3.392182159966    -3.015580624742
C                    -4.007078225775    -4.222300688184    -1.569439311890
C                    -2.749841175393    -2.169879695666    -5.975524785246
C                    -3.401932699873    -3.468111633590    -5.488951330176
C                    -2.530860464683    -4.120064915816    -4.412779734407
C                    -9.167622189593    -2.178084852906    -4.601543606163
C                    -9.912232972628    -3.455439146463    -4.902061867698
C                    -2.426507919971    -3.210580453043    -3.179443554840
C                    -8.399588610310    -3.438717014311    -4.911620866622
C                    -5.447912229877    -4.152563090643    -1.029257374282
N                    -7.029962856010    -5.556488169658    -2.306216319544
N                    -7.690120448792    -4.077713212613    -3.837568853128
N                    -6.439696756085    -4.333821583811    -2.077528239204
N                    -3.685098166441    -3.213625650928    -2.420209568141
O                    -6.393492319990    -2.226500709980    -3.112041052285
O                    -3.240116531974    -5.125807977944    -1.238051550689
Cl                  -11.090628286108    -9.899162819410    -5.574280917267
H                    -1.269563815454     1.951418822189    -4.324515198212
H                    -0.944041660835     1.063490705307    -2.011893352577
H                    -8.483622311204    -5.812981596653    -5.997351731196
H                    -8.881099670427    -7.396982669440    -2.014202136872
H                    -2.110144928559     0.455111255760    -6.109650601990
H                    -1.481368142340    -1.314503480973    -1.528825151475
H                    -9.841596795141    -7.675211018468    -6.879163940674
H                   -10.240503668388    -9.280774358639    -2.906102707698
H                    -3.440671551506    -1.606311517371    -6.612609426127
H                    -1.886788022860    -2.421043472049    -6.608073837670
H                    -4.395664143124    -3.252995895641    -5.076596783397
H                    -3.547997130206    -4.151454025170    -6.332701479216
H                    -2.928323054569    -5.089833103551    -4.100388302629
H                    -1.522405152388    -4.295041117682    -4.809417982618
H                    -9.142144852241    -1.393290664996    -5.350127451697
H                    -9.140176223057    -1.827533568740    -3.576210694744
H                   -10.393830976561    -3.970503745977    -4.077389546664
H                   -10.412772435600    -3.565423020422    -5.859039000859
H                    -1.665042678731    -3.611932368425    -2.505925946731
H                    -7.892505495412    -3.487466660495    -5.871810740465
H                    -5.582137944695    -4.954820063003    -0.306442141112
H                    -5.631084603554    -3.185391279142    -0.551513008134
H                    -4.406850314345    -2.540130363513    -2.673231470923
