40
-1 1 C15ClH18O5S
C                     0.450989610885    -2.861440611501    -8.341560254495
C                    -0.678937255889    -2.089148700870    -8.113940582943
C                     1.277855503752    -3.288526562808    -7.285855613953
C                    -0.188287326511    -2.077357801808    -5.724391235465
C                    -1.016807019871    -1.708950909073    -6.803735163943
C                     0.943539921462    -2.863687259808    -5.995468632924
C                     2.479642751864    -4.199411799992    -7.603797146276
C                    -0.534013234196    -1.283759507432    -0.072167230035
C                    -1.852063832346    -2.090916872434     0.120594385043
C                    -0.061524761940    -1.608031676687    -1.501823556211
C                    -2.231449845135    -2.628843827196    -1.286327715563
C                    -1.372468711238    -1.817684448411    -2.274497982589
C                    -5.197890619002    -1.754658976944    -6.506871606604
C                    -1.209440245975    -2.495857059105    -3.619501158319
C                    -3.769062021236    -2.267713099940    -6.661159609544
O                     3.483140382792    -3.599086946185    -8.053938496676
O                     2.248406746756    -5.415962039219    -7.400863385223
O                    -2.731907238013    -0.228921510992    -5.295716329040
O                    -2.841208018278    -0.079071590315    -7.835220437783
O                    -0.428398559502    -1.627757323435    -4.453221314259
S                    -2.587512255944    -0.872367618668    -6.613764291888
Cl                    1.977074725098    -3.303208997276    -4.638855229816
H                     0.720805889091    -3.146144904230    -9.354836402930
H                    -1.303225502798    -1.757008354423    -8.938243951042
H                    -0.737375131363    -0.210164179163     0.013531331157
H                     0.219975299277    -1.526226145231     0.683933498399
H                    -1.721287479799    -2.912894490817     0.832055121013
H                    -2.644146885988    -1.450909633445     0.523271206700
H                     0.566121855219    -0.829975147653    -1.942168741045
H                     0.518210399278    -2.540031015784    -1.515624735995
H                    -1.968240413197    -3.691590451135    -1.365886625171
H                    -3.302973883841    -2.546148441925    -1.496168519825
H                    -1.842138573999    -0.842556489298    -2.454028717456
H                    -5.322656889005    -1.236502680744    -5.552368503906
H                    -5.450043104794    -1.061496077647    -7.313793455997
H                    -5.898074022393    -2.596143549008    -6.540391453288
H                    -2.191659714180    -2.661612443328    -4.080396109321
H                    -0.702195504483    -3.464391411964    -3.514442177906
H                    -3.605103601110    -2.769561657371    -7.617947302555
H                    -3.482820278206    -2.947864113722    -5.855371485283
