
  -OEChem-05262117483D

 29 30  0     1  0  0  0  0  0999 V2000
   -0.9248    5.0023    2.8364 C   0  0  0  0  0  0  0  0  0  0  0  0
   -0.2126    5.5542    3.9087 C   0  0  0  0  0  0  0  0  0  0  0  0
   -0.3937    3.9220    2.1318 C   0  0  0  0  0  0  0  0  0  0  0  0
    1.0247    5.0232    4.2783 C   0  0  0  0  0  0  0  0  0  0  0  0
    0.8480    3.3692    2.4823 C   0  0  0  0  0  0  0  0  0  0  0  0
    1.5253    3.9425    3.5601 C   0  0  0  0  0  0  0  0  0  0  0  0
    0.4094    0.3473    3.0128 C   0  0  0  0  0  0  0  0  0  0  0  0
   -0.1769   -1.2129    4.6140 C   0  0  0  0  0  0  0  0  0  0  0  0
    0.6694   -0.0807    5.2237 C   0  0  0  0  0  0  0  0  0  0  0  0
    1.6512    2.4626    0.2378 C   0  0  0  0  0  0  0  0  0  0  0  0
    1.4494    2.1990    1.7301 C   0  0  2  0  0  0  0  0  0  0  0  0
   -0.4508   -0.6449    3.2804 N   0  0  0  0  0  0  0  0  0  0  0  0
    0.5822    0.9811    1.8699 N   0  3  0  0  0  0  0  0  0  0  0  0
    1.1383    0.6868    4.0576 O   0  0  0  0  0  0  0  0  0  0  0  0
    2.7264    3.4240    3.9271 F   0  0  0  0  0  0  0  0  0  0  0  0
   -1.8843    5.4199    2.5472 H   0  0  0  0  0  0  0  0  0  0  0  0
   -0.6174    6.4010    4.4550 H   0  0  0  0  0  0  0  0  0  0  0  0
   -0.9504    3.5077    1.2942 H   0  0  0  0  0  0  0  0  0  0  0  0
    1.6025    5.4325    5.1012 H   0  0  0  0  0  0  0  0  0  0  0  0
    0.3738   -2.1538    4.5279 H   0  0  0  0  0  0  0  0  0  0  0  0
   -1.1046   -1.3783    5.1631 H   0  0  0  0  0  0  0  0  0  0  0  0
    0.0873    0.6076    5.8376 H   0  0  0  0  0  0  0  0  0  0  0  0
    1.5541   -0.4189    5.7589 H   0  0  0  0  0  0  0  0  0  0  0  0
    0.7057    2.6930   -0.2638 H   0  0  0  0  0  0  0  0  0  0  0  0
    2.1177    1.6036   -0.2538 H   0  0  0  0  0  0  0  0  0  0  0  0
    2.3068    3.3267    0.1153 H   0  0  0  0  0  0  0  0  0  0  0  0
    2.4076    1.9411    2.1810 H   0  0  0  0  0  0  0  0  0  0  0  0
   -0.9849   -1.1284    2.5679 H   0  0  0  0  0  0  0  0  0  0  0  0
    0.0084    0.7099    1.0787 H   0  0  0  0  0  0  0  0  0  0  0  0
  1  2  1  0  0  0  0
  1  3  2  0  0  0  0
  1 16  1  0  0  0  0
  2  4  2  0  0  0  0
  2 17  1  0  0  0  0
  3  5  1  0  0  0  0
  3 18  1  0  0  0  0
  4  6  1  0  0  0  0
  4 19  1  0  0  0  0
  5  6  2  0  0  0  0
  5 11  1  0  0  0  0
  6 15  1  0  0  0  0
  7 12  1  0  0  0  0
  7 13  2  0  0  0  0
  7 14  1  0  0  0  0
  8  9  1  0  0  0  0
  8 12  1  0  0  0  0
  8 20  1  0  0  0  0
  8 21  1  0  0  0  0
  9 14  1  0  0  0  0
  9 22  1  0  0  0  0
  9 23  1  0  0  0  0
 10 11  1  0  0  0  0
 10 24  1  0  0  0  0
 10 25  1  0  0  0  0
 10 26  1  0  0  0  0
 11 13  1  0  0  0  0
 11 27  1  0  0  0  0
 12 28  1  0  0  0  0
 13 29  1  0  0  0  0
M  CHG  1  13   1
M  END
$$$$
