
  -OEChem-05262117483D

 34 35  0     1  0  0  0  0  0999 V2000
   -0.5524    2.9254    0.7776 C   0  0  0  0  0  0  0  0  0  0  0  0
    0.8272    3.1275    0.3223 C   0  0  0  0  0  0  0  0  0  0  0  0
   -1.0476    1.6892    0.9700 C   0  0  0  0  0  0  0  0  0  0  0  0
    1.5680    2.0935   -0.1088 C   0  0  0  0  0  0  0  0  0  0  0  0
   -1.3566   -1.2454   -2.2879 C   0  0  0  0  0  0  0  0  0  0  0  0
    2.7792   -0.6206    0.9474 C   0  0  0  0  0  0  0  0  0  0  0  0
   -0.9816   -0.7059    0.0821 C   0  0  0  0  0  0  0  0  0  0  0  0
    0.2693    0.5412   -1.5989 C   0  0  0  0  0  0  0  0  0  0  0  0
   -0.2118    0.4485    0.7554 C   0  0  1  0  0  0  0  0  0  0  0  0
    0.9655    0.7140   -0.2274 C   0  0  2  0  0  0  0  0  0  0  0  0
   -1.6264   -1.6042   -4.6043 C   0  0  0  0  0  0  0  0  0  0  0  0
    3.5588    0.1558    3.0336 C   0  0  0  0  0  0  0  0  0  0  0  0
   -0.6807   -0.5402   -1.3442 N   0  0  0  0  0  0  0  0  0  0  0  0
    1.9859   -0.3391   -0.1347 N   0  0  0  0  0  0  0  0  0  0  0  0
   -2.2013   -2.0994   -2.0497 O   0  0  0  0  0  0  0  0  0  0  0  0
    3.4864   -1.6132    1.0379 O   0  0  0  0  0  0  0  0  0  0  0  0
   -0.9666   -0.8835   -3.5467 O   0  0  0  0  0  0  0  0  0  0  0  0
    2.7006    0.3523    1.8937 O   0  0  0  0  0  0  0  0  0  0  0  0
   -1.1657    3.7978    0.9900 H   0  0  0  0  0  0  0  0  0  0  0  0
    1.2457    4.1307    0.3434 H   0  0  0  0  0  0  0  0  0  0  0  0
   -2.0543    1.5531    1.3604 H   0  0  0  0  0  0  0  0  0  0  0  0
    2.5933    2.2184   -0.4449 H   0  0  0  0  0  0  0  0  0  0  0  0
   -0.6305   -1.6830    0.4307 H   0  0  0  0  0  0  0  0  0  0  0  0
   -2.0588   -0.6588    0.2605 H   0  0  0  0  0  0  0  0  0  0  0  0
   -0.2406    1.4691   -1.8752 H   0  0  0  0  0  0  0  0  0  0  0  0
    0.9734    0.2830   -2.3923 H   0  0  0  0  0  0  0  0  0  0  0  0
    0.1700    0.1216    1.7293 H   0  0  0  0  0  0  0  0  0  0  0  0
   -1.2089   -1.2050   -5.5292 H   0  0  0  0  0  0  0  0  0  0  0  0
   -2.7056   -1.4379   -4.5678 H   0  0  0  0  0  0  0  0  0  0  0  0
   -1.4260   -2.6752   -4.5240 H   0  0  0  0  0  0  0  0  0  0  0  0
    3.3762    1.0143    3.6802 H   0  0  0  0  0  0  0  0  0  0  0  0
    4.6058    0.1232    2.7237 H   0  0  0  0  0  0  0  0  0  0  0  0
    3.3073   -0.7747    3.5476 H   0  0  0  0  0  0  0  0  0  0  0  0
    1.9136   -1.1198   -0.7757 H   0  0  0  0  0  0  0  0  0  0  0  0
  1  2  1  0  0  0  0
  1  3  2  0  0  0  0
  1 19  1  0  0  0  0
  2  4  2  0  0  0  0
  2 20  1  0  0  0  0
  3  9  1  0  0  0  0
  3 21  1  0  0  0  0
  4 10  1  0  0  0  0
  4 22  1  0  0  0  0
  5 13  1  0  0  0  0
  5 15  2  0  0  0  0
  5 17  1  0  0  0  0
  6 14  1  0  0  0  0
  6 16  2  0  0  0  0
  6 18  1  0  0  0  0
  7  9  1  0  0  0  0
  7 13  1  0  0  0  0
  7 23  1  0  0  0  0
  7 24  1  0  0  0  0
  8 10  1  0  0  0  0
  8 13  1  0  0  0  0
  8 25  1  0  0  0  0
  8 26  1  0  0  0  0
  9 10  1  0  0  0  0
  9 27  1  0  0  0  0
 10 14  1  0  0  0  0
 11 17  1  0  0  0  0
 11 28  1  0  0  0  0
 11 29  1  0  0  0  0
 11 30  1  0  0  0  0
 12 18  1  0  0  0  0
 12 31  1  0  0  0  0
 12 32  1  0  0  0  0
 12 33  1  0  0  0  0
 14 34  1  0  0  0  0
M  END
$$$$
