
  -OEChem-05262117483D

 34 35  0     1  0  0  0  0  0999 V2000
    0.1873    2.7845    1.7179 C   0  0  0  0  0  0  0  0  0  0  0  0
    1.5214    2.8655    1.1145 C   0  0  0  0  0  0  0  0  0  0  0  0
   -0.3657    1.5965    2.0226 C   0  0  0  0  0  0  0  0  0  0  0  0
    2.1360    1.7626    0.6570 C   0  0  0  0  0  0  0  0  0  0  0  0
   -1.0002   -1.5860   -1.0938 C   0  0  0  0  0  0  0  0  0  0  0  0
    3.2152   -0.9183    1.7447 C   0  0  0  0  0  0  0  0  0  0  0  0
   -0.5576   -0.8355    1.2636 C   0  0  0  0  0  0  0  0  0  0  0  0
    0.5611    0.2513   -0.6083 C   0  0  0  0  0  0  0  0  0  0  0  0
    0.3581    0.2915    1.7844 C   0  0  1  0  0  0  0  0  0  0  0  0
    1.4252    0.4303    0.6614 C   0  0  2  0  0  0  0  0  0  0  0  0
   -2.4914   -3.3962   -1.3500 C   0  0  0  0  0  0  0  0  0  0  0  0
    4.8280   -2.4215    2.5887 C   0  0  0  0  0  0  0  0  0  0  0  0
   -0.4216   -0.7473   -0.1964 N   0  0  0  0  0  0  0  0  0  0  0  0
    2.3709   -0.6896    0.6968 N   0  0  0  0  0  0  0  0  0  0  0  0
   -0.8125   -1.5620   -2.3048 O   0  0  0  0  0  0  0  0  0  0  0  0
    3.3717   -0.1866    2.7106 O   0  0  0  0  0  0  0  0  0  0  0  0
   -1.8273   -2.4740   -0.4666 O   0  0  0  0  0  0  0  0  0  0  0  0
    3.8819   -2.0949    1.5540 O   0  0  0  0  0  0  0  0  0  0  0  0
   -0.3384    3.7073    1.9514 H   0  0  0  0  0  0  0  0  0  0  0  0
    2.0126    3.8333    1.0529 H   0  0  0  0  0  0  0  0  0  0  0  0
   -1.3301    1.5500    2.5250 H   0  0  0  0  0  0  0  0  0  0  0  0
    3.1294    1.7957    0.2188 H   0  0  0  0  0  0  0  0  0  0  0  0
   -0.2249   -1.8170    1.6170 H   0  0  0  0  0  0  0  0  0  0  0  0
   -1.5976   -0.7036    1.5738 H   0  0  0  0  0  0  0  0  0  0  0  0
    0.0820    1.2005   -0.8655 H   0  0  0  0  0  0  0  0  0  0  0  0
    1.1303   -0.0926   -1.4744 H   0  0  0  0  0  0  0  0  0  0  0  0
    0.8320   -0.0133    2.7241 H   0  0  0  0  0  0  0  0  0  0  0  0
   -3.1035   -4.0253   -0.7028 H   0  0  0  0  0  0  0  0  0  0  0  0
   -1.7630   -4.0014   -1.8949 H   0  0  0  0  0  0  0  0  0  0  0  0
   -3.1178   -2.8594   -2.0664 H   0  0  0  0  0  0  0  0  0  0  0  0
    5.2649   -3.3746    2.2898 H   0  0  0  0  0  0  0  0  0  0  0  0
    4.3256   -2.5165    3.5544 H   0  0  0  0  0  0  0  0  0  0  0  0
    5.6005   -1.6521    2.6602 H   0  0  0  0  0  0  0  0  0  0  0  0
    2.2703   -1.4364    0.0211 H   0  0  0  0  0  0  0  0  0  0  0  0
  1  2  1  0  0  0  0
  1  3  2  0  0  0  0
  1 19  1  0  0  0  0
  2  4  2  0  0  0  0
  2 20  1  0  0  0  0
  3  9  1  0  0  0  0
  3 21  1  0  0  0  0
  4 10  1  0  0  0  0
  4 22  1  0  0  0  0
  5 13  1  0  0  0  0
  5 15  2  0  0  0  0
  5 17  1  0  0  0  0
  6 14  1  0  0  0  0
  6 16  2  0  0  0  0
  6 18  1  0  0  0  0
  7  9  1  0  0  0  0
  7 13  1  0  0  0  0
  7 23  1  0  0  0  0
  7 24  1  0  0  0  0
  8 10  1  0  0  0  0
  8 13  1  0  0  0  0
  8 25  1  0  0  0  0
  8 26  1  0  0  0  0
  9 10  1  0  0  0  0
  9 27  1  0  0  0  0
 10 14  1  0  0  0  0
 11 17  1  0  0  0  0
 11 28  1  0  0  0  0
 11 29  1  0  0  0  0
 11 30  1  0  0  0  0
 12 18  1  0  0  0  0
 12 31  1  0  0  0  0
 12 32  1  0  0  0  0
 12 33  1  0  0  0  0
 14 34  1  0  0  0  0
M  END
$$$$
