
  -OEChem-05262117483D

 40 41  0     0  0  0  0  0  0999 V2000
    0.3789   -3.5115   -8.5275 C   0  0  0  0  0  0  0  0  0  0  0  0
   -0.8071   -2.7930   -8.4340 C   0  0  0  0  0  0  0  0  0  0  0  0
    1.2885   -3.5843   -7.4558 C   0  0  0  0  0  0  0  0  0  0  0  0
   -0.2482   -2.2045   -6.1344 C   0  0  0  0  0  0  0  0  0  0  0  0
   -1.1237   -2.1456   -7.2327 C   0  0  0  0  0  0  0  0  0  0  0  0
    0.9505   -2.9166   -6.2719 C   0  0  0  0  0  0  0  0  0  0  0  0
    2.6011   -4.3707   -7.6408 C   0  0  0  0  0  0  0  0  0  0  0  0
   -1.9017    0.6146   -1.6031 C   0  0  0  0  0  0  0  0  0  0  0  0
   -0.4746    0.1901   -1.1343 C   0  0  0  0  0  0  0  0  0  0  0  0
   -2.1847   -0.2083   -2.8774 C   0  0  0  0  0  0  0  0  0  0  0  0
   -0.0249   -0.9301   -2.1030 C   0  0  0  0  0  0  0  0  0  0  0  0
   -1.3333   -1.4771   -2.7014 C   0  0  0  0  0  0  0  0  0  0  0  0
   -1.1186    0.9816   -8.1105 C   0  0  0  0  0  0  0  0  0  0  0  0
   -1.1656   -2.3255   -3.9500 C   0  0  0  0  0  0  0  0  0  0  0  0
   -1.9829    0.5326   -6.9370 C   0  0  0  0  0  0  0  0  0  0  0  0
    3.5516   -3.6791   -8.0775 O   0  5  0  0  0  0  0  0  0  0  0  0
    2.5077   -5.5892   -7.3606 O   0  0  0  0  0  0  0  0  0  0  0  0
   -3.2631   -1.2271   -8.4786 O   0  0  0  0  0  0  0  0  0  0  0  0
   -3.4132   -1.4893   -5.9542 O   0  0  0  0  0  0  0  0  0  0  0  0
   -0.5504   -1.5152   -4.9834 O   0  0  0  0  0  0  0  0  0  0  0  0
   -2.6123   -1.1610   -7.1520 S   0  0  0  0  0  0  0  0  0  0  0  0
    2.0601   -2.9379   -4.9040 Cl  0  0  0  0  0  0  0  0  0  0  0  0
    0.6310   -4.0250   -9.4513 H   0  0  0  0  0  0  0  0  0  0  0  0
   -1.4953   -2.7150   -9.2698 H   0  0  0  0  0  0  0  0  0  0  0  0
   -2.6397    0.3771   -0.8281 H   0  0  0  0  0  0  0  0  0  0  0  0
   -1.9751    1.6916   -1.7868 H   0  0  0  0  0  0  0  0  0  0  0  0
    0.2261    1.0312   -1.1409 H   0  0  0  0  0  0  0  0  0  0  0  0
   -0.5087   -0.1808   -0.1038 H   0  0  0  0  0  0  0  0  0  0  0  0
   -3.2450   -0.4257   -3.0347 H   0  0  0  0  0  0  0  0  0  0  0  0
   -1.8332    0.3294   -3.7628 H   0  0  0  0  0  0  0  0  0  0  0  0
    0.5854   -0.5226   -2.9145 H   0  0  0  0  0  0  0  0  0  0  0  0
    0.5702   -1.7065   -1.6117 H   0  0  0  0  0  0  0  0  0  0  0  0
   -1.8222   -2.1233   -1.9562 H   0  0  0  0  0  0  0  0  0  0  0  0
   -0.2249    0.3585   -8.2024 H   0  0  0  0  0  0  0  0  0  0  0  0
   -1.6775    0.9274   -9.0482 H   0  0  0  0  0  0  0  0  0  0  0  0
   -0.7959    2.0165   -7.9541 H   0  0  0  0  0  0  0  0  0  0  0  0
   -2.1355   -2.6703   -4.3210 H   0  0  0  0  0  0  0  0  0  0  0  0
   -0.5210   -3.1877   -3.7468 H   0  0  0  0  0  0  0  0  0  0  0  0
   -2.8905    1.1350   -6.8290 H   0  0  0  0  0  0  0  0  0  0  0  0
   -1.4415    0.5240   -5.9900 H   0  0  0  0  0  0  0  0  0  0  0  0
  1  2  1  0  0  0  0
  1  3  2  0  0  0  0
  1 23  1  0  0  0  0
  2  5  2  0  0  0  0
  2 24  1  0  0  0  0
  3  6  1  0  0  0  0
  3  7  1  0  0  0  0
  4  5  1  0  0  0  0
  4  6  2  0  0  0  0
  4 20  1  0  0  0  0
  5 21  1  0  0  0  0
  6 22  1  0  0  0  0
  7 16  1  0  0  0  0
  7 17  2  0  0  0  0
  8  9  1  0  0  0  0
  8 10  1  0  0  0  0
  8 25  1  0  0  0  0
  8 26  1  0  0  0  0
  9 11  1  0  0  0  0
  9 27  1  0  0  0  0
  9 28  1  0  0  0  0
 10 12  1  0  0  0  0
 10 29  1  0  0  0  0
 10 30  1  0  0  0  0
 11 12  1  0  0  0  0
 11 31  1  0  0  0  0
 11 32  1  0  0  0  0
 12 14  1  0  0  0  0
 12 33  1  0  0  0  0
 13 15  1  0  0  0  0
 13 34  1  0  0  0  0
 13 35  1  0  0  0  0
 13 36  1  0  0  0  0
 14 20  1  0  0  0  0
 14 37  1  0  0  0  0
 14 38  1  0  0  0  0
 15 21  1  0  0  0  0
 15 39  1  0  0  0  0
 15 40  1  0  0  0  0
 18 21  2  0  0  0  0
 19 21  2  0  0  0  0
M  CHG  1  16  -1
M  END
$$$$
