41
0 1 C15ClH19O5S
C                     0.684095299623    -3.133525953961    -8.570988812506
C                    -0.494618530912    -2.405969557572    -8.477157003965
C                     1.455434029803    -3.406065769684    -7.429205153524
C                    -0.154884290404    -2.144293025011    -6.075353235231
C                    -0.922985387408    -1.932596507399    -7.233846463698
C                     1.035682813310    -2.900945082014    -6.185591574635
C                     2.678222130614    -4.256289359418    -7.581640708136
C                    -0.939064870879    -0.688423286567    -0.585230947015
C                    -2.349719925116    -1.341227247618    -0.467318395033
C                    -0.362883309259    -1.172392343077    -1.933670377296
C                    -2.565623121089    -2.126474734018    -1.784122569181
C                    -1.606992335603    -1.462665643854    -2.788291445525
C                    -5.132376818704    -1.856271008134    -7.181777479375
C                    -1.346262823870    -2.317168779650    -4.009250461182
C                    -3.711325178563    -2.415496027973    -7.199886611455
O                     3.175247534108    -4.958540676221    -6.726415181946
O                    -2.680346665987    -0.252305809597    -6.013389187413
O                    -2.626143414722    -0.403075694270    -8.560319351081
O                     3.182019187327    -4.187379220406    -8.846144472893
O                    -0.468266447756    -1.573862354938    -4.887212345526
S                    -2.511412075044    -1.041428931678    -7.238529602635
Cl                    1.971469045070    -3.102671938019    -4.732559861199
H                     1.023834355643    -3.498696414751    -9.532848536788
H                    -1.076570436633    -2.177689065395    -9.364151816292
H                    -1.027244638177     0.402730257971    -0.584193415717
H                    -0.287842588760    -0.953099687693     0.253035052836
H                    -2.431137839557    -1.995877010530     0.405352008252
H                    -3.118480324006    -0.570312642388    -0.355605879046
H                     0.310841963863    -0.450032117640    -2.400554926392
H                     0.202346988195    -2.103605737597    -1.796730274435
H                    -2.278783418394    -3.177787844016    -1.647948429165
H                    -3.608004825751    -2.114251841140    -2.118777772112
H                    -2.039665297566    -0.516511036626    -3.135351202579
H                    -5.297684624842    -1.238724785811    -6.295758469825
H                    -5.326097228804    -1.251955046886    -8.071233473742
H                    -5.845704301370    -2.685578207144    -7.165066793327
H                    -2.283132000916    -2.531324463137    -4.535633367467
H                    -0.864231794226    -3.265639828367    -3.738200935487
H                    -3.512034733812    -3.019012243702    -8.089072587858
H                    -3.488068102145    -3.007329016327    -6.308916963886
H                     3.945530042452    -4.796083351922    -8.861086421157
