
  -OEChem-05262117483D

 41 42  0     0  0  0  0  0  0999 V2000
    0.6841   -3.1335   -8.5710 C   0  0  0  0  0  0  0  0  0  0  0  0
   -0.4946   -2.4060   -8.4772 C   0  0  0  0  0  0  0  0  0  0  0  0
    1.4554   -3.4061   -7.4292 C   0  0  0  0  0  0  0  0  0  0  0  0
   -0.1549   -2.1443   -6.0754 C   0  0  0  0  0  0  0  0  0  0  0  0
   -0.9230   -1.9326   -7.2338 C   0  0  0  0  0  0  0  0  0  0  0  0
    1.0357   -2.9009   -6.1856 C   0  0  0  0  0  0  0  0  0  0  0  0
    2.6782   -4.2563   -7.5816 C   0  0  0  0  0  0  0  0  0  0  0  0
   -0.9391   -0.6884   -0.5852 C   0  0  0  0  0  0  0  0  0  0  0  0
   -2.3497   -1.3412   -0.4673 C   0  0  0  0  0  0  0  0  0  0  0  0
   -0.3629   -1.1724   -1.9337 C   0  0  0  0  0  0  0  0  0  0  0  0
   -2.5656   -2.1265   -1.7841 C   0  0  0  0  0  0  0  0  0  0  0  0
   -1.6070   -1.4627   -2.7883 C   0  0  0  0  0  0  0  0  0  0  0  0
   -5.1324   -1.8563   -7.1818 C   0  0  0  0  0  0  0  0  0  0  0  0
   -1.3463   -2.3172   -4.0093 C   0  0  0  0  0  0  0  0  0  0  0  0
   -3.7113   -2.4155   -7.1999 C   0  0  0  0  0  0  0  0  0  0  0  0
    3.1752   -4.9585   -6.7264 O   0  0  0  0  0  0  0  0  0  0  0  0
   -2.6803   -0.2523   -6.0134 O   0  0  0  0  0  0  0  0  0  0  0  0
   -2.6261   -0.4031   -8.5603 O   0  0  0  0  0  0  0  0  0  0  0  0
    3.1820   -4.1874   -8.8461 O   0  0  0  0  0  0  0  0  0  0  0  0
   -0.4683   -1.5739   -4.8872 O   0  0  0  0  0  0  0  0  0  0  0  0
   -2.5114   -1.0414   -7.2385 S   0  0  0  0  0  0  0  0  0  0  0  0
    1.9715   -3.1027   -4.7326 Cl  0  0  0  0  0  0  0  0  0  0  0  0
    1.0238   -3.4987   -9.5328 H   0  0  0  0  0  0  0  0  0  0  0  0
   -1.0766   -2.1777   -9.3642 H   0  0  0  0  0  0  0  0  0  0  0  0
   -1.0272    0.4027   -0.5842 H   0  0  0  0  0  0  0  0  0  0  0  0
   -0.2878   -0.9531    0.2530 H   0  0  0  0  0  0  0  0  0  0  0  0
   -2.4311   -1.9959    0.4054 H   0  0  0  0  0  0  0  0  0  0  0  0
   -3.1185   -0.5703   -0.3556 H   0  0  0  0  0  0  0  0  0  0  0  0
    0.3108   -0.4500   -2.4006 H   0  0  0  0  0  0  0  0  0  0  0  0
    0.2023   -2.1036   -1.7967 H   0  0  0  0  0  0  0  0  0  0  0  0
   -2.2788   -3.1778   -1.6479 H   0  0  0  0  0  0  0  0  0  0  0  0
   -3.6080   -2.1143   -2.1188 H   0  0  0  0  0  0  0  0  0  0  0  0
   -2.0397   -0.5165   -3.1354 H   0  0  0  0  0  0  0  0  0  0  0  0
   -5.2977   -1.2387   -6.2958 H   0  0  0  0  0  0  0  0  0  0  0  0
   -5.3261   -1.2520   -8.0712 H   0  0  0  0  0  0  0  0  0  0  0  0
   -5.8457   -2.6856   -7.1651 H   0  0  0  0  0  0  0  0  0  0  0  0
   -2.2831   -2.5313   -4.5356 H   0  0  0  0  0  0  0  0  0  0  0  0
   -0.8642   -3.2656   -3.7382 H   0  0  0  0  0  0  0  0  0  0  0  0
   -3.5120   -3.0190   -8.0891 H   0  0  0  0  0  0  0  0  0  0  0  0
   -3.4881   -3.0073   -6.3089 H   0  0  0  0  0  0  0  0  0  0  0  0
    3.9455   -4.7961   -8.8611 H   0  0  0  0  0  0  0  0  0  0  0  0
  1  2  1  0  0  0  0
  1  3  2  0  0  0  0
  1 23  1  0  0  0  0
  2  5  2  0  0  0  0
  2 24  1  0  0  0  0
  3  6  1  0  0  0  0
  3  7  1  0  0  0  0
  4  5  1  0  0  0  0
  4  6  2  0  0  0  0
  4 20  1  0  0  0  0
  5 21  1  0  0  0  0
  6 22  1  0  0  0  0
  7 16  2  0  0  0  0
  7 19  1  0  0  0  0
  8  9  1  0  0  0  0
  8 10  1  0  0  0  0
  8 25  1  0  0  0  0
  8 26  1  0  0  0  0
  9 11  1  0  0  0  0
  9 27  1  0  0  0  0
  9 28  1  0  0  0  0
 10 12  1  0  0  0  0
 10 29  1  0  0  0  0
 10 30  1  0  0  0  0
 11 12  1  0  0  0  0
 11 31  1  0  0  0  0
 11 32  1  0  0  0  0
 12 14  1  0  0  0  0
 12 33  1  0  0  0  0
 13 15  1  0  0  0  0
 13 34  1  0  0  0  0
 13 35  1  0  0  0  0
 13 36  1  0  0  0  0
 14 20  1  0  0  0  0
 14 37  1  0  0  0  0
 14 38  1  0  0  0  0
 15 21  1  0  0  0  0
 15 39  1  0  0  0  0
 15 40  1  0  0  0  0
 17 21  2  0  0  0  0
 18 21  2  0  0  0  0
 19 41  1  0  0  0  0
M  END
$$$$
