
  -OEChem-05262117483D

 28 29  0     1  0  0  0  0  0999 V2000
   -3.1091    1.8864    4.8925 C   0  0  0  0  0  0  0  0  0  0  0  0
   -3.9537    2.4058    3.9070 C   0  0  0  0  0  0  0  0  0  0  0  0
   -1.8252    1.4484    4.5536 C   0  0  0  0  0  0  0  0  0  0  0  0
   -3.5131    2.4819    2.5813 C   0  0  0  0  0  0  0  0  0  0  0  0
   -1.3495    1.5266    3.2389 C   0  0  0  0  0  0  0  0  0  0  0  0
   -2.2304    2.0412    2.2853 C   0  0  0  0  0  0  0  0  0  0  0  0
   -0.4001   -1.2648    2.2819 C   0  0  0  0  0  0  0  0  0  0  0  0
   -0.9101   -3.1057    3.3804 C   0  0  0  0  0  0  0  0  0  0  0  0
   -1.1507   -3.3427    1.8645 C   0  0  0  0  0  0  0  0  0  0  0  0
    0.9521    2.1916    2.3830 C   0  0  0  0  0  0  0  0  0  0  0  0
    0.0502    1.0534    2.8739 C   0  0  2  0  0  0  0  0  0  0  0  0
   -0.5068   -1.6974    3.4844 N   0  0  0  0  0  0  0  0  0  0  0  0
    0.0341   -0.0286    1.8817 N   0  0  0  0  0  0  0  0  0  0  0  0
   -0.7003   -2.1093    1.2415 O   0  0  0  0  0  0  0  0  0  0  0  0
   -1.8179    2.1056    0.9797 F   0  0  0  0  0  0  0  0  0  0  0  0
   -3.4523    1.8124    5.9207 H   0  0  0  0  0  0  0  0  0  0  0  0
   -4.9540    2.7450    4.1615 H   0  0  0  0  0  0  0  0  0  0  0  0
   -1.1784    1.0193    5.3139 H   0  0  0  0  0  0  0  0  0  0  0  0
   -4.1432    2.8710    1.7873 H   0  0  0  0  0  0  0  0  0  0  0  0
   -1.8139   -3.2895    3.9711 H   0  0  0  0  0  0  0  0  0  0  0  0
   -0.1203   -3.7563    3.7757 H   0  0  0  0  0  0  0  0  0  0  0  0
   -0.5660   -4.1639    1.4435 H   0  0  0  0  0  0  0  0  0  0  0  0
   -2.2057   -3.4802    1.6099 H   0  0  0  0  0  0  0  0  0  0  0  0
    0.5780    2.6264    1.4520 H   0  0  0  0  0  0  0  0  0  0  0  0
    0.9948    2.9863    3.1333 H   0  0  0  0  0  0  0  0  0  0  0  0
    1.9642    1.8146    2.2096 H   0  0  0  0  0  0  0  0  0  0  0  0
    0.4892    0.6205    3.7744 H   0  0  0  0  0  0  0  0  0  0  0  0
   -0.2784    0.2338    0.9532 H   0  0  0  0  0  0  0  0  0  0  0  0
  1  2  1  0  0  0  0
  1  3  2  0  0  0  0
  1 16  1  0  0  0  0
  2  4  2  0  0  0  0
  2 17  1  0  0  0  0
  3  5  1  0  0  0  0
  3 18  1  0  0  0  0
  4  6  1  0  0  0  0
  4 19  1  0  0  0  0
  5  6  2  0  0  0  0
  5 11  1  0  0  0  0
  6 15  1  0  0  0  0
  7 12  2  0  0  0  0
  7 13  1  0  0  0  0
  7 14  1  0  0  0  0
  8  9  1  0  0  0  0
  8 12  1  0  0  0  0
  8 20  1  0  0  0  0
  8 21  1  0  0  0  0
  9 14  1  0  0  0  0
  9 22  1  0  0  0  0
  9 23  1  0  0  0  0
 10 11  1  0  0  0  0
 10 24  1  0  0  0  0
 10 25  1  0  0  0  0
 10 26  1  0  0  0  0
 11 13  1  0  0  0  0
 11 27  1  0  0  0  0
 13 28  1  0  0  0  0
M  END
$$$$
