
  -OEChem-05262117483D

 34 35  0     0  0  0  0  0  0999 V2000
   -5.4225   -0.4499   -0.6894 C   0  0  0  0  0  0  0  0  0  0  0  0
   -5.3250    0.7636    0.0506 C   0  0  0  0  0  0  0  0  0  0  0  0
   -4.4140   -0.8346   -1.5303 C   0  0  0  0  0  0  0  0  0  0  0  0
   -4.2030    1.5272   -0.1041 C   0  0  0  0  0  0  0  0  0  0  0  0
   -3.2144   -0.0433   -1.7038 C   0  0  0  0  0  0  0  0  0  0  0  0
   -1.3691    2.2405    0.3414 C   0  0  0  0  0  0  0  0  0  0  0  0
   -0.1914    1.3139    2.2673 C   0  0  0  0  0  0  0  0  0  0  0  0
   -0.4403   -0.1009    0.2999 C   0  0  0  0  0  0  0  0  0  0  0  0
   -0.9648    0.2797    3.0872 C   0  0  0  0  0  0  0  0  0  0  0  0
   -1.2122   -1.1199    1.1391 C   0  0  0  0  0  0  0  0  0  0  0  0
   -1.4670   -2.0680    3.3439 C   0  0  0  0  0  0  0  0  0  0  0  0
   -2.0009    2.0232   -1.0401 C   0  0  0  0  0  0  0  0  0  0  0  0
   -3.1829    1.1497   -0.9383 N   0  0  0  0  0  0  0  0  0  0  0  0
   -0.6076    1.2397    0.8649 N   0  0  0  0  0  0  0  0  0  0  0  0
   -0.7816   -1.0651    2.5373 N   0  0  0  0  0  0  0  0  0  0  0  0
   -2.2605   -0.3488   -2.4339 O   0  0  0  0  0  0  0  0  0  0  0  0
   -1.6006    3.2982    0.9389 O   0  0  0  0  0  0  0  0  0  0  0  0
   -6.3065   -1.0746   -0.5841 H   0  0  0  0  0  0  0  0  0  0  0  0
   -6.1127    1.0915    0.7189 H   0  0  0  0  0  0  0  0  0  0  0  0
   -4.4597   -1.7527   -2.1063 H   0  0  0  0  0  0  0  0  0  0  0  0
   -4.0480    2.4613    0.4265 H   0  0  0  0  0  0  0  0  0  0  0  0
   -0.3799    2.3229    2.6312 H   0  0  0  0  0  0  0  0  0  0  0  0
    0.8825    1.1027    2.3232 H   0  0  0  0  0  0  0  0  0  0  0  0
    0.6272   -0.3485    0.3306 H   0  0  0  0  0  0  0  0  0  0  0  0
   -0.7661   -0.1426   -0.7372 H   0  0  0  0  0  0  0  0  0  0  0  0
   -0.5980    0.2900    4.1194 H   0  0  0  0  0  0  0  0  0  0  0  0
   -2.0339    0.5691    3.1088 H   0  0  0  0  0  0  0  0  0  0  0  0
   -2.2977   -0.9252    1.0379 H   0  0  0  0  0  0  0  0  0  0  0  0
   -1.0195   -2.1243    0.7477 H   0  0  0  0  0  0  0  0  0  0  0  0
   -1.0874   -2.0387    4.3704 H   0  0  0  0  0  0  0  0  0  0  0  0
   -1.2705   -3.0652    2.9374 H   0  0  0  0  0  0  0  0  0  0  0  0
   -2.5630   -1.9192    3.3770 H   0  0  0  0  0  0  0  0  0  0  0  0
   -1.3317    1.5740   -1.7716 H   0  0  0  0  0  0  0  0  0  0  0  0
   -2.3111    3.0077   -1.3933 H   0  0  0  0  0  0  0  0  0  0  0  0
  1  2  1  0  0  0  0
  1  3  2  0  0  0  0
  1 18  1  0  0  0  0
  2  4  2  0  0  0  0
  2 19  1  0  0  0  0
  3  5  1  0  0  0  0
  3 20  1  0  0  0  0
  4 13  1  0  0  0  0
  4 21  1  0  0  0  0
  5 13  1  0  0  0  0
  5 16  2  0  0  0  0
  6 12  1  0  0  0  0
  6 14  1  0  0  0  0
  6 17  2  0  0  0  0
  7  9  1  0  0  0  0
  7 14  1  0  0  0  0
  7 22  1  0  0  0  0
  7 23  1  0  0  0  0
  8 10  1  0  0  0  0
  8 14  1  0  0  0  0
  8 24  1  0  0  0  0
  8 25  1  0  0  0  0
  9 15  1  0  0  0  0
  9 26  1  0  0  0  0
  9 27  1  0  0  0  0
 10 15  1  0  0  0  0
 10 28  1  0  0  0  0
 10 29  1  0  0  0  0
 11 15  1  0  0  0  0
 11 30  1  0  0  0  0
 11 31  1  0  0  0  0
 11 32  1  0  0  0  0
 12 13  1  0  0  0  0
 12 33  1  0  0  0  0
 12 34  1  0  0  0  0
M  END
$$$$
