35
0 1 C10H21N3O
C                    -1.029093985526    -2.708878620578     1.858873083606
C                    -0.533902276318    -0.681564499029    -2.877979055659
C                     1.854335124436    -0.475102258420    -3.098306114904
C                    -0.412646832520    -0.413713447397    -1.374008018951
C                     1.966401056714    -0.211053117500    -1.592227767540
C                    -2.137573993174    -1.919955919073     2.539134568422
C                     2.581848075375    -2.058339209899     1.413975979907
C                     0.440308121262    -0.214820049599    -5.037728061093
C                     1.020808467435    -2.270901853019    -0.599369059220
C                     1.248208503985    -2.591844471015     0.889934608695
N                     0.555815023061    -0.018657232667    -3.598547005510
N                     0.881803245217    -0.820682854043    -0.814544673571
N                     0.153099878391    -2.040499518980     1.689076261898
O                    -1.191077130002    -3.880995119451     1.514883951401
H                    -0.535614116969    -1.774111070824    -3.066194477571
H                    -1.488755101652    -0.288057694005    -3.245712083551
H                     2.645613019076     0.070372001640    -3.625881442656
H                     2.007689214267    -1.553892805122    -3.304513307973
H                    -0.533081691801     0.663063199011    -1.201816802660
H                    -1.212594634286    -0.928545992121    -0.833779143323
H                     2.926841300170    -0.575769994044    -1.216702351217
H                     1.936786040418     0.872725829305    -1.425719258312
H                    -3.021920638694    -1.929877780102     1.896205075289
H                    -2.405465452778    -2.425419428908     3.471097415458
H                    -1.866116212552    -0.884400822683     2.763456656310
H                     2.633362444939    -0.969213652352     1.308416223224
H                     2.709076035428    -2.309183320913     2.471213006524
H                     3.416131122406    -2.493421870250     0.853646789483
H                    -0.518447819926     0.180688749232    -5.389038317673
H                     0.502574900778    -1.279481866408    -5.334778026397
H                     1.240657886037     0.328921017510    -5.550518579754
H                     0.117779929590    -2.798414134598    -0.922950123038
H                     1.849259240756    -2.686977536901    -1.187176241984
H                     1.203923880477    -3.676753306417     1.014814747050
H                     0.142288253508    -1.030753887433     1.767625231508
