
  -OEChem-05262117483D

 25 24  0     1  0  0  0  0  0999 V2000
    1.2087    0.2524    3.3507 C   0  0  0  0  0  0  0  0  0  0  0  0
    0.0150   -2.4758    2.3768 C   0  0  0  0  0  0  0  0  0  0  0  0
    2.2457    1.3407    3.5778 C   0  0  0  0  0  0  0  0  0  0  0  0
    0.0136   -1.2952    0.1432 C   0  0  0  0  0  0  0  0  0  0  0  0
    1.1374   -4.3231    3.4872 C   0  0  0  0  0  0  0  0  0  0  0  0
    2.5308   -2.6476    2.3479 C   0  0  0  0  0  0  0  0  0  0  0  0
    0.0042   -1.1051    1.6638 C   0  0  2  0  0  0  0  0  0  0  0  0
    1.0428   -0.1540    2.0536 N   0  0  0  0  0  0  0  0  0  0  0  0
    1.1903   -3.1142    2.6694 N   0  0  0  0  0  0  0  0  0  0  0  0
    0.5678   -0.2439    4.2742 O   0  0  0  0  0  0  0  0  0  0  0  0
   -1.0841   -2.9833    2.6067 O   0  0  0  0  0  0  0  0  0  0  0  0
    1.7432    2.2239    3.9819 H   0  0  0  0  0  0  0  0  0  0  0  0
    2.9576    0.9959    4.3321 H   0  0  0  0  0  0  0  0  0  0  0  0
    2.7917    1.6261    2.6738 H   0  0  0  0  0  0  0  0  0  0  0  0
    0.9625   -1.7131   -0.2103 H   0  0  0  0  0  0  0  0  0  0  0  0
   -0.7874   -1.9806   -0.1417 H   0  0  0  0  0  0  0  0  0  0  0  0
   -0.1566   -0.3400   -0.3658 H   0  0  0  0  0  0  0  0  0  0  0  0
    1.5288   -5.1832    2.9297 H   0  0  0  0  0  0  0  0  0  0  0  0
    0.1033   -4.5168    3.7649 H   0  0  0  0  0  0  0  0  0  0  0  0
    1.7405   -4.1861    4.3930 H   0  0  0  0  0  0  0  0  0  0  0  0
    2.9736   -2.0701    3.1703 H   0  0  0  0  0  0  0  0  0  0  0  0
    2.5402   -2.0362    1.4483 H   0  0  0  0  0  0  0  0  0  0  0  0
    3.1651   -3.5210    2.1631 H   0  0  0  0  0  0  0  0  0  0  0  0
   -0.9669   -0.7019    1.9631 H   0  0  0  0  0  0  0  0  0  0  0  0
    1.5496    0.3269    1.3225 H   0  0  0  0  0  0  0  0  0  0  0  0
  1  3  1  0  0  0  0
  1  8  1  0  0  0  0
  1 10  2  0  0  0  0
  2  7  1  0  0  0  0
  2  9  1  0  0  0  0
  2 11  2  0  0  0  0
  3 12  1  0  0  0  0
  3 13  1  0  0  0  0
  3 14  1  0  0  0  0
  4  7  1  0  0  0  0
  4 15  1  0  0  0  0
  4 16  1  0  0  0  0
  4 17  1  0  0  0  0
  5  9  1  0  0  0  0
  5 18  1  0  0  0  0
  5 19  1  0  0  0  0
  5 20  1  0  0  0  0
  6  9  1  0  0  0  0
  6 21  1  0  0  0  0
  6 22  1  0  0  0  0
  6 23  1  0  0  0  0
  7  8  1  0  0  0  0
  7 24  1  0  0  0  0
  8 25  1  0  0  0  0
M  END
$$$$
