
  -OEChem-05262117483D

 35 35  0     1  0  0  0  0  0999 V2000
    4.0918   -4.5727   -5.4757 C   0  0  0  0  0  0  0  0  0  0  0  0
    1.6484   -3.0738   -0.4454 C   0  0  0  0  0  0  0  0  0  0  0  0
    2.0230   -0.8098   -1.1410 C   0  0  0  0  0  0  0  0  0  0  0  0
    1.0060   -3.3838   -1.7936 C   0  0  0  0  0  0  0  0  0  0  0  0
    1.3813   -1.1211   -2.4888 C   0  0  0  0  0  0  0  0  0  0  0  0
    5.1709   -5.3573   -4.7447 C   0  0  0  0  0  0  0  0  0  0  0  0
    2.8403   -1.5746   -5.6065 C   0  0  0  0  0  0  0  0  0  0  0  0
    2.0309   -1.3591    1.2112 C   0  0  0  0  0  0  0  0  0  0  0  0
    1.1041   -2.8688   -4.1880 C   0  0  0  0  0  0  0  0  0  0  0  0
    2.2438   -2.9344   -5.2195 C   0  0  2  0  0  0  0  0  0  0  0  0
    1.4653   -1.6666   -0.0958 N   0  0  0  0  0  0  0  0  0  0  0  0
    1.5821   -2.5313   -2.8387 N   0  0  0  0  0  0  0  0  0  0  0  0
    3.2707   -3.8236   -4.6853 N   0  0  0  0  0  0  0  0  0  0  0  0
    3.9691   -4.6312   -6.7012 O   0  0  0  0  0  0  0  0  0  0  0  0
    1.1821   -3.6928    0.3292 H   0  0  0  0  0  0  0  0  0  0  0  0
    2.7226   -3.3439   -0.4895 H   0  0  0  0  0  0  0  0  0  0  0  0
    3.1203   -0.9360   -1.2274 H   0  0  0  0  0  0  0  0  0  0  0  0
    1.8277    0.2361   -0.8796 H   0  0  0  0  0  0  0  0  0  0  0  0
    1.1951   -4.4313   -2.0497 H   0  0  0  0  0  0  0  0  0  0  0  0
   -0.0875   -3.2456   -1.7127 H   0  0  0  0  0  0  0  0  0  0  0  0
    0.3045   -0.8760   -2.4406 H   0  0  0  0  0  0  0  0  0  0  0  0
    1.8318   -0.4897   -3.2577 H   0  0  0  0  0  0  0  0  0  0  0  0
    5.0566   -6.4180   -4.9842 H   0  0  0  0  0  0  0  0  0  0  0  0
    6.1490   -5.0412   -5.1179 H   0  0  0  0  0  0  0  0  0  0  0  0
    5.1449   -5.2316   -3.6583 H   0  0  0  0  0  0  0  0  0  0  0  0
    3.3390   -1.1049   -4.7531 H   0  0  0  0  0  0  0  0  0  0  0  0
    3.5805   -1.7137   -6.3990 H   0  0  0  0  0  0  0  0  0  0  0  0
    2.0635   -0.8951   -5.9754 H   0  0  0  0  0  0  0  0  0  0  0  0
    1.5578   -1.9846    1.9752 H   0  0  0  0  0  0  0  0  0  0  0  0
    1.8346   -0.3115    1.4617 H   0  0  0  0  0  0  0  0  0  0  0  0
    3.1243   -1.5251    1.2590 H   0  0  0  0  0  0  0  0  0  0  0  0
    0.6355   -3.8572   -4.1532 H   0  0  0  0  0  0  0  0  0  0  0  0
    0.3334   -2.1622   -4.5312 H   0  0  0  0  0  0  0  0  0  0  0  0
    1.8549   -3.4082   -6.1253 H   0  0  0  0  0  0  0  0  0  0  0  0
    3.4690   -3.7032   -3.6980 H   0  0  0  0  0  0  0  0  0  0  0  0
  1  6  1  0  0  0  0
  1 13  1  0  0  0  0
  1 14  2  0  0  0  0
  2  4  1  0  0  0  0
  2 11  1  0  0  0  0
  2 15  1  0  0  0  0
  2 16  1  0  0  0  0
  3  5  1  0  0  0  0
  3 11  1  0  0  0  0
  3 17  1  0  0  0  0
  3 18  1  0  0  0  0
  4 12  1  0  0  0  0
  4 19  1  0  0  0  0
  4 20  1  0  0  0  0
  5 12  1  0  0  0  0
  5 21  1  0  0  0  0
  5 22  1  0  0  0  0
  6 23  1  0  0  0  0
  6 24  1  0  0  0  0
  6 25  1  0  0  0  0
  7 10  1  0  0  0  0
  7 26  1  0  0  0  0
  7 27  1  0  0  0  0
  7 28  1  0  0  0  0
  8 11  1  0  0  0  0
  8 29  1  0  0  0  0
  8 30  1  0  0  0  0
  8 31  1  0  0  0  0
  9 10  1  0  0  0  0
  9 12  1  0  0  0  0
  9 32  1  0  0  0  0
  9 33  1  0  0  0  0
 10 13  1  0  0  0  0
 10 34  1  0  0  0  0
 13 35  1  0  0  0  0
M  END
$$$$
