35
0 1 C10H21N3O
C                     4.583345694023    -3.145536720862    -0.932654566319
C                     0.077189883780     0.629646123833    -2.013949634674
C                     0.816586916597    -0.688995718723    -3.888549621559
C                     1.476190434381     0.522576989700    -1.392211550953
C                     2.213370934366    -0.779323098813    -3.264738168609
C                     6.025955241128    -2.888024807657    -1.343912382745
C                     2.095109628143    -3.332456838672     0.975081433853
C                    -1.151618671448     0.697891838523    -4.089647243527
C                     1.776481102089    -1.900666795899    -1.108593971252
C                     2.590542134149    -2.121017853330     0.179195358226
N                     0.160682569770     0.554169366604    -3.473875225390
N                     2.206671873677    -0.681727956578    -1.802086558535
N                     4.031472893012    -2.198018154082    -0.111578480691
O                     3.977643320235    -4.147441512511    -1.318339147900
H                    -0.581454717272    -0.164597713822    -1.608751627574
H                    -0.371839802887     1.590687681937    -1.736678715391
H                     0.900610758920    -0.692868597391    -4.981632853131
H                     0.217951540412    -1.577101734400    -3.602383984796
H                     2.060594430876     1.398688632386    -1.698670800364
H                     1.399321184364     0.545336986200    -0.299870474544
H                     2.699215617165    -1.715408172819    -3.555444627391
H                     2.819459644560     0.047894236514    -3.655173697896
H                     6.592145122078    -3.815686989168    -1.235366674858
H                     6.043686461303    -2.611304338508    -2.402853973826
H                     6.512461633571    -2.097921903387    -0.764892986622
H                     2.158736848183    -4.243649755362     0.378221605963
H                     2.697554117142    -3.467457014922     1.878329315652
H                     1.053473941637    -3.177432834901     1.276917039719
H                    -1.593395968567     1.657356967133    -3.800373738422
H                    -1.855460769031    -0.106064194859    -3.799323300492
H                    -1.051881022981     0.684621232977    -5.180038788758
H                     0.706690071122    -1.894191857634    -0.848573689275
H                     1.937183939346    -2.763095450530    -1.758847070601
H                     2.480182639622    -1.231928928027     0.810641483632
H                     4.518186426581    -1.312167052461    -0.087715917014
