28
0 1 C8H16N2O2
C                    -0.734449262939    -3.245662764235     1.094117132714
C                    -3.924998860987    -2.885047709588     1.307974090373
C                     0.261230774846    -3.451635579425    -1.177515545784
C                     0.870581153447    -1.409767645221     0.209409207328
C                    -3.146737259908    -1.176301951936     3.014152724708
C                    -4.757758390953    -4.739329381833    -0.067367650944
C                     0.484723483292    -2.894090078093     0.241273004515
C                    -2.781541821954    -2.443699215346     2.251821352668
N                    -3.859407356308    -4.192657053985     0.940146339761
N                    -1.556390383970    -2.230019669638     1.471729168864
O                    -0.965910454118    -4.423823334704     1.404789130148
O                    -4.800730369223    -2.105500943443     0.929343536262
H                    -0.564801203530    -2.930926119603    -1.675633599675
H                     1.161314917773    -3.315331907412    -1.785740941261
H                     0.024913551951    -4.517632378042    -1.139501545219
H                     0.123298824555    -0.802490350094    -0.316855909401
H                     1.812729217135    -1.282648865011    -0.332794441230
H                     1.009513624382    -0.998743068942     1.214784798217
H                    -3.382093713951    -0.361314208870     2.323883101810
H                    -4.036635614672    -1.348268458416     3.624056252247
H                    -2.322062827457    -0.877710816216     3.668464131711
H                    -4.745307025814    -5.829670078425    -0.001448733741
H                    -4.467593280457    -4.438253425728    -1.081907590977
H                    -5.770849041608    -4.377825447058     0.117544255227
H                     1.303796395048    -3.459967860907     0.698580525620
H                    -2.564126560311    -3.259178881547     2.946572736116
H                    -2.993675450526    -4.683979731643     1.156668059225
H                    -1.388804739821    -1.298119249638     1.116344798106
