
  -OEChem-05262117483D

 35 35  0     1  0  0  0  0  0999 V2000
    4.5996   -1.3866   -4.4278 C   0  0  0  0  0  0  0  0  0  0  0  0
    2.8242   -1.2072    0.3384 C   0  0  0  0  0  0  0  0  0  0  0  0
    0.5825   -0.4730   -0.0752 C   0  0  0  0  0  0  0  0  0  0  0  0
    2.6714   -2.2905   -0.7237 C   0  0  0  0  0  0  0  0  0  0  0  0
    0.4212   -1.5574   -1.1352 C   0  0  0  0  0  0  0  0  0  0  0  0
    5.0293    0.0723   -4.4674 C   0  0  0  0  0  0  0  0  0  0  0  0
    2.5418   -3.7403   -4.9856 C   0  0  0  0  0  0  0  0  0  0  0  0
    1.6667    0.1024    2.0048 C   0  0  0  0  0  0  0  0  0  0  0  0
    1.5778   -2.8462   -2.8323 C   0  0  0  0  0  0  0  0  0  0  0  0
    2.8426   -2.9685   -3.6976 C   0  0  2  0  0  0  0  0  0  0  0  0
    1.5343   -0.8948    0.9506 N   0  0  0  0  0  0  0  0  0  0  0  0
    1.7134   -1.8695   -1.7518 N   0  0  0  0  0  0  0  0  0  0  0  0
    3.3322   -1.6159   -3.9681 N   0  0  0  0  0  0  0  0  0  0  0  0
    5.3457   -2.2898   -4.8102 O   0  0  0  0  0  0  0  0  0  0  0  0
    3.5084   -1.5605    1.1174 H   0  0  0  0  0  0  0  0  0  0  0  0
    3.2800   -0.3105   -0.1264 H   0  0  0  0  0  0  0  0  0  0  0  0
    0.9053    0.4661   -0.5666 H   0  0  0  0  0  0  0  0  0  0  0  0
   -0.3869   -0.2841    0.3990 H   0  0  0  0  0  0  0  0  0  0  0  0
    3.6440   -2.4690   -1.1904 H   0  0  0  0  0  0  0  0  0  0  0  0
    2.3477   -3.2315   -0.2427 H   0  0  0  0  0  0  0  0  0  0  0  0
   -0.0284   -2.4530   -0.6691 H   0  0  0  0  0  0  0  0  0  0  0  0
   -0.2628   -1.2050   -1.9147 H   0  0  0  0  0  0  0  0  0  0  0  0
    5.9772    0.1742   -3.9325 H   0  0  0  0  0  0  0  0  0  0  0  0
    5.2083    0.3568   -5.5082 H   0  0  0  0  0  0  0  0  0  0  0  0
    4.2937    0.7574   -4.0363 H   0  0  0  0  0  0  0  0  0  0  0  0
    1.7949   -3.2094   -5.5858 H   0  0  0  0  0  0  0  0  0  0  0  0
    3.4525   -3.8533   -5.5758 H   0  0  0  0  0  0  0  0  0  0  0  0
    2.1532   -4.7372   -4.7482 H   0  0  0  0  0  0  0  0  0  0  0  0
    2.3500   -0.2651    2.7773 H   0  0  0  0  0  0  0  0  0  0  0  0
    0.6919    0.2792    2.4708 H   0  0  0  0  0  0  0  0  0  0  0  0
    2.0532    1.0721    1.6365 H   0  0  0  0  0  0  0  0  0  0  0  0
    1.3117   -3.8502   -2.4563 H   0  0  0  0  0  0  0  0  0  0  0  0
    0.7515   -2.5122   -3.4710 H   0  0  0  0  0  0  0  0  0  0  0  0
    3.6218   -3.5157   -3.1527 H   0  0  0  0  0  0  0  0  0  0  0  0
    2.8826   -0.8934   -3.4129 H   0  0  0  0  0  0  0  0  0  0  0  0
  1  6  1  0  0  0  0
  1 13  1  0  0  0  0
  1 14  2  0  0  0  0
  2  4  1  0  0  0  0
  2 11  1  0  0  0  0
  2 15  1  0  0  0  0
  2 16  1  0  0  0  0
  3  5  1  0  0  0  0
  3 11  1  0  0  0  0
  3 17  1  0  0  0  0
  3 18  1  0  0  0  0
  4 12  1  0  0  0  0
  4 19  1  0  0  0  0
  4 20  1  0  0  0  0
  5 12  1  0  0  0  0
  5 21  1  0  0  0  0
  5 22  1  0  0  0  0
  6 23  1  0  0  0  0
  6 24  1  0  0  0  0
  6 25  1  0  0  0  0
  7 10  1  0  0  0  0
  7 26  1  0  0  0  0
  7 27  1  0  0  0  0
  7 28  1  0  0  0  0
  8 11  1  0  0  0  0
  8 29  1  0  0  0  0
  8 30  1  0  0  0  0
  8 31  1  0  0  0  0
  9 10  1  0  0  0  0
  9 12  1  0  0  0  0
  9 32  1  0  0  0  0
  9 33  1  0  0  0  0
 10 13  1  0  0  0  0
 10 34  1  0  0  0  0
 13 35  1  0  0  0  0
M  END
$$$$
