
  -OEChem-05262117483D

 28 27  0     1  0  0  0  0  0999 V2000
   -1.7665   -0.9754    0.2195 C   0  0  0  0  0  0  0  0  0  0  0  0
   -4.5772   -2.5852    0.7157 C   0  0  0  0  0  0  0  0  0  0  0  0
   -0.3046   -1.0866   -1.8061 C   0  0  0  0  0  0  0  0  0  0  0  0
    0.4161    0.2395    0.2393 C   0  0  0  0  0  0  0  0  0  0  0  0
   -3.8517   -0.9511    2.5447 C   0  0  0  0  0  0  0  0  0  0  0  0
   -5.8744   -2.0240   -1.2828 C   0  0  0  0  0  0  0  0  0  0  0  0
   -0.3199   -1.0102   -0.2711 C   0  0  0  0  0  0  0  0  0  0  0  0
   -3.4555   -2.1632    1.6906 C   0  0  2  0  0  0  0  0  0  0  0  0
   -4.8522   -1.7212   -0.2910 N   0  0  0  0  0  0  0  0  0  0  0  0
   -2.1426   -1.9942    1.0395 N   0  0  0  0  0  0  0  0  0  0  0  0
   -2.5349   -0.0645   -0.1223 O   0  0  0  0  0  0  0  0  0  0  0  0
   -5.1932   -3.6390    0.8973 O   0  0  0  0  0  0  0  0  0  0  0  0
   -0.8151   -0.2178   -2.2307 H   0  0  0  0  0  0  0  0  0  0  0  0
    0.7263   -1.1000   -2.1746 H   0  0  0  0  0  0  0  0  0  0  0  0
   -0.8080   -1.9894   -2.1680 H   0  0  0  0  0  0  0  0  0  0  0  0
   -0.0777    1.1429   -0.1288 H   0  0  0  0  0  0  0  0  0  0  0  0
    1.4523    0.2392   -0.1141 H   0  0  0  0  0  0  0  0  0  0  0  0
    0.4287    0.2787    1.3337 H   0  0  0  0  0  0  0  0  0  0  0  0
   -3.9676   -0.0521    1.9389 H   0  0  0  0  0  0  0  0  0  0  0  0
   -4.7987   -1.1620    3.0503 H   0  0  0  0  0  0  0  0  0  0  0  0
   -3.0864   -0.7636    3.3046 H   0  0  0  0  0  0  0  0  0  0  0  0
   -5.5966   -2.8911   -1.8927 H   0  0  0  0  0  0  0  0  0  0  0  0
   -5.9996   -1.1548   -1.9316 H   0  0  0  0  0  0  0  0  0  0  0  0
   -6.8254   -2.2487   -0.7924 H   0  0  0  0  0  0  0  0  0  0  0  0
    0.1796   -1.9007    0.1318 H   0  0  0  0  0  0  0  0  0  0  0  0
   -3.3442   -3.0286    2.3455 H   0  0  0  0  0  0  0  0  0  0  0  0
   -4.2456   -0.9103   -0.4043 H   0  0  0  0  0  0  0  0  0  0  0  0
   -1.4677   -2.7307    1.1941 H   0  0  0  0  0  0  0  0  0  0  0  0
  1  7  1  0  0  0  0
  1 10  1  0  0  0  0
  1 11  2  0  0  0  0
  2  8  1  0  0  0  0
  2  9  1  0  0  0  0
  2 12  2  0  0  0  0
  3  7  1  0  0  0  0
  3 13  1  0  0  0  0
  3 14  1  0  0  0  0
  3 15  1  0  0  0  0
  4  7  1  0  0  0  0
  4 16  1  0  0  0  0
  4 17  1  0  0  0  0
  4 18  1  0  0  0  0
  5  8  1  0  0  0  0
  5 19  1  0  0  0  0
  5 20  1  0  0  0  0
  5 21  1  0  0  0  0
  6  9  1  0  0  0  0
  6 22  1  0  0  0  0
  6 23  1  0  0  0  0
  6 24  1  0  0  0  0
  7 25  1  0  0  0  0
  8 10  1  0  0  0  0
  8 26  1  0  0  0  0
  9 27  1  0  0  0  0
 10 28  1  0  0  0  0
M  END
$$$$
