24   
torsion grid (-165,)
C       -0.6159220937   -1.3444642576    0.6578583599
C       -4.7586727287    0.0914814027    1.8015941214
C       -3.4830780378    1.6498529664    3.1436614098
C       -5.9438696565    0.5885730609    2.3414439649
C       -4.6573412597    2.1495895390    3.7026416833
C       -3.5052859865    0.5965433852    2.2063076669
C       -5.8709143190    1.6019101420    3.2937613739
C       -2.2344287772    0.1198792401    1.6591105847
C       -2.7530888900   -2.3233289325    1.4447946957
C       -1.9124143205   -1.1421574452    1.2546032038
C       -2.7724783165   -5.7064995159    0.8455833733
N        0.4378003040   -1.4766245052    0.1789925728
N       -2.4329906775   -3.4314909927    0.8747510441
O       -3.3387951905   -4.4355750932    1.1964534730
F       -7.0188050265    2.0857226735    3.8235816092
H       -4.8137023827   -0.6617088161    1.0228339793
H       -2.5285507555    2.0697566884    3.4502700771
H       -6.9126315288    0.2144807454    2.0252503999
H       -4.6452997674    2.9503564606    4.4353432300
H       -1.4489729780    0.8679754556    1.5774046393
H       -3.6221723069   -2.2573765089    2.0994205703
H       -3.5620153437   -6.4368779401    1.0314663366
H       -1.9017103686   -5.9247353850    1.4721046092
H       -2.4832982849   -5.7184088929   -0.2094508742
24   
torsion grid (-150,)
C       -0.6297700725   -1.3241818774    0.5903853657
C       -4.7587702596    0.1106175469    1.7756857061
C       -3.4721033132    1.6073814605    3.1781399831
C       -5.9404602486    0.5989758156    2.3307379173
C       -4.6435206398    2.0968198436    3.7518961201
C       -3.5024689138    0.5893357089    2.2028489629
C       -5.8609349855    1.5758726781    3.3199950816
C       -2.2347570116    0.1202301436    1.6422738374
C       -2.7780211843   -2.3082295287    1.3432248434
C       -1.9247455459   -1.1291057330    1.1923752590
C       -2.7616195734   -5.6713809601    0.9326588451
N        0.4240319593   -1.4501889134    0.1100382428
N       -2.4805684274   -3.3951525213    0.7231269217
O       -3.4132620950   -4.3957502517    1.0048495852
F       -7.0056776727    2.0506055050    3.8641753946
H       -4.8183096283   -0.6130386058    0.9696806007
H       -2.5145356003    2.0067866576    3.5022182050
H       -6.9117645125    0.2460708796    1.9984704533
H       -4.6264190420    2.8700314639    4.5134962652
H       -1.4418469210    0.8631285640    1.5892742481
H       -3.6426108741   -2.2571018364    2.0051558860
H       -3.5581440154   -6.4119161428    1.0264385617
H       -2.0452159211   -5.7836535440    1.7536628620
H       -2.2467591657   -5.7840563090   -0.0264195110
24   
torsion grid (-135,)
C       -0.6282570607   -1.3003881937    0.5235490860
C       -4.7503637565    0.1145065167    1.7471663372
C       -3.4606811423    1.5502480413    3.2094032465
C       -5.9319194904    0.5871347979    2.3157982074
C       -4.6319673066    2.0231505925    3.7969596077
C       -3.4929873352    0.5697283520    2.1964991477
C       -5.8506838107    1.5253546054    3.3417233963
C       -2.2259289894    0.1142098297    1.6237958573
C       -2.7860980276   -2.2982049066    1.2377076569
C       -1.9233776861   -1.1194256296    1.1287091915
C       -2.7842995084   -5.6012407817    1.0360768008
N        0.4270895001   -1.4144648812    0.0436061025
N       -2.5090798401   -3.3603058610    0.5686453513
O       -3.4659083373   -4.3595056025    0.8183681571
F       -6.9945524882    1.9852640960    3.8996196433
H       -4.8105750740   -0.5776100533    0.9139878626
H       -2.5023571636    1.9323819061    3.5515615284
H       -6.9037102201    0.2522248637    1.9667773810
H       -4.6138996550    2.7669855374    4.5872267491
H       -1.4281537227    0.8536013043    1.6008112807
H       -3.6450728638   -2.2655570771    1.9083195546
H       -3.5663619692   -6.3619288118    1.0770231637
H       -2.2336805283   -5.5775865096    1.9837206873
H       -2.0931933519   -5.8091542374    0.2126766106
24   
torsion grid (-120,)
C       -0.6165708133   -1.2826385322    0.4610736965
C       -4.7375588866    0.1050479527    1.7191731680
C       -3.4494658249    1.4847971313    3.2372424419
C       -5.9194390552    0.5603111816    2.3009766773
C       -4.6211965870    1.9392980365    3.8379704316
C       -3.4811620744    0.5411666149    2.1897582203
C       -5.8391911608    1.4607457320    3.3603892775
C       -2.2133225677    0.1021156783    1.6065906083
C       -2.7838898145   -2.2903669464    1.1337134423
C       -1.9120995472   -1.1133180433    1.0680839338
C       -2.8253192579   -5.4973236214    1.1494697222
N        0.4403463467   -1.3865530028   -0.0177443443
N       -2.5206249782   -3.3257402515    0.4201553088
O       -3.4903334474   -4.3337509649    0.6449336929
F       -6.9836627447    1.9031234210    3.9302859187
H       -4.7965365773   -0.5562316267    0.8611935618
H       -2.4912757792    1.8519230644    3.5957985878
H       -6.8909453176    0.2410748620    1.9368656201
H       -4.6042507819    2.6542320601    4.6544990174
H       -1.4132945435    0.8394651790    1.6134926436
H       -3.6392271733   -2.2768209176    1.8101307988
H       -3.5833201944   -6.2829420163    1.1729676038
H       -2.4417415949   -5.3163638751    2.1614880180
H       -1.9995409443   -5.7863363548    0.4900144788
24   
torsion grid (-105,)
C       -0.5973183332   -1.2547430026    0.3971782735
C       -4.7200862513    0.0883894214    1.6917465806
C       -3.4371978119    1.4154301605    3.2605732427
C       -5.9038598944    0.5206153536    2.2871097262
C       -4.6107557122    1.8460798495    3.8749036193
C       -3.4652909069    0.5093381515    2.1803100536
C       -5.8271215388    1.3826998662    3.3782236990
C       -2.1958571058    0.0918156208    1.5853947252
C       -2.7693056654   -2.2816308022    1.0322605785
C       -1.8934478732   -1.1047026769    1.0070617362
C       -2.8878903963   -5.3582513536    1.2619112854
N        0.4609403289   -1.3428335571   -0.0818462462
N       -2.5160353163   -3.2905226383    0.2795612601
O       -3.4870253447   -4.3135103782    0.4890476445
F       -6.9731266382    1.8025835402    3.9612653905
H       -4.7763132129   -0.5414230159    0.8102115158
H       -2.4803300207    1.7712263434    3.6337525419
H       -6.8741018800    0.2132336331    1.9097042633
H       -4.5966897742    2.5315500604    4.7163568211
H       -1.3964429356    0.8292263442    1.6182362808
H       -3.6197972872   -2.2878800500    1.7155246580
H       -3.6241417958   -6.1643536575    1.2881941488
H       -2.6723114212   -5.0159485352    2.2829287525
H       -1.9620128652   -5.7079469162    0.7906111044
24   
torsion grid (-90,)
C       -0.5730185314   -1.2230297912    0.3306616394
C       -4.7009010830    0.0587186490    1.6681474616
C       -3.4245941551    1.3470641853    3.2739230512
C       -5.8865597328    0.4646745947    2.2782095509
C       -4.5996499529    1.7511546814    3.9030698175
C       -3.4480286754    0.4732520463    2.1672103489
C       -5.8136450742    1.2941514496    3.3945562891
C       -2.1769467919    0.0817270680    1.5585975294
C       -2.7403028691   -2.2769847533    0.9406014587
C       -1.8683494344   -1.0966087591    0.9471014734
C       -2.9750581055   -5.2058170464    1.3600985378
N        0.4850621139   -1.2913333057   -0.1519280225
N       -2.4899542275   -3.2632620890    0.1582783125
O       -3.4472222228   -4.3087320769    0.3503495307
F       -6.9612877123    1.6885176530    3.9916480810
H       -4.7545035797   -0.5437211014    0.7675010516
H       -2.4695172369    1.6982451821    3.6559083605
H       -6.8553756206    0.1624327635    1.8930664703
H       -4.5887689788    2.4113747483    4.7645297956
H       -1.3823699519    0.8233046580    1.6100959191
H       -3.5852097501   -2.3006277866    1.6309641806
H       -3.6943908104   -6.0271938613    1.3810419551
H       -2.9411768193   -4.7184203529    2.3440800544
H       -1.9781962133   -5.5863951892    1.1071215424
24   
torsion grid (-75,)
C       -0.5443747306   -1.1754480977    0.2704787343
C       -4.6789539157    0.0236332936    1.6582195350
C       -3.4095892721    1.3042155754    3.2768641837
C       -5.8661685590    0.3991132110    2.2848216653
C       -4.5858702250    1.6777788199    3.9223301161
C       -3.4291023832    0.4499534630    2.1549195874
C       -5.7962636490    1.2097709903    3.4150239774
C       -2.1577438270    0.0886500792    1.5281348247
C       -2.6897508829   -2.2704207852    0.8877669600
C       -1.8356131781   -1.0777282724    0.9006322972
C       -3.0838477357   -5.0671723993    1.4453276258
N        0.5102833677   -1.2191512939   -0.2222575350
N       -2.4270347865   -3.2430390894    0.0922249215
O       -3.3469263481   -4.3238951501    0.2496429557
F       -6.9449770407    1.5747533043    4.0285230004
H       -4.7296460595   -0.5629105929    0.7468602855
H       -2.4570179247    1.6637720135    3.6573220631
H       -6.8332990958    0.0884336098    1.9020882674
H       -4.5787661764    2.3226602894    4.7953918429
H       -1.3758626273    0.8435283215    1.5790761322
H       -3.5272499252   -2.3045940182    1.5863265766
H       -3.7630671085   -5.9212958984    1.4079917928
H       -3.2871018206   -4.4816335602    2.3514800115
H       -2.0447593124   -5.4173536582    1.4606901261
24   
torsion grid (-60,)
C       -0.5228672244   -1.1158428379    0.2110428155
C       -4.6583233475   -0.0031700887    1.6622357591
C       -3.3932869027    1.2926390678    3.2707243106
C       -5.8436827131    0.3428813251    2.3094650131
C       -4.5677833084    1.6367062639    3.9359440174
C       -3.4103859934    0.4459572894    2.1431795081
C       -5.7759500785    1.1469230593    3.4444087141
C       -2.1413091068    0.1150085444    1.4942244903
C       -2.6323320729   -2.2566392971    0.8681932089
C       -1.8045656257   -1.0460624811    0.8644125742
C       -3.2130953662   -4.9472777037    1.4950400567
N        0.5235439835   -1.1356940006   -0.3003868318
N       -2.3498626748   -3.2248495217    0.0724976693
O       -3.2073513476   -4.3447550794    0.1929917571
F       -6.9233164225    1.4828346670    4.0775356999
H       -4.7099651576   -0.5834934279    0.7468566873
H       -2.4431278297    1.6697719700    3.6400176543
H       -6.8095128643    0.0146872175    1.9382219638
H       -4.5609813616    2.2756564749    4.8133526663
H       -1.3766690975    0.8880947535    1.5292700057
H       -3.4546423708   -2.2979480708    1.5826807744
H       -3.7455246063   -5.8912932918    1.3645033807
H       -3.7394802040   -4.3448040874    2.2455940039
H       -2.1871133712   -5.1414628669    1.8282017246
24   
torsion grid (-45,)
C       -0.4925684795   -1.0895963033    0.1666583714
C       -4.6332627764   -0.0658042608    1.6707207917
C       -3.3747468890    1.2692561065    3.2514379894
C       -5.8171555944    0.2555183776    2.3335152896
C       -4.5474166696    1.5894491862    3.9321240583
C       -3.3892223199    0.4158394188    2.1291993678
C       -5.7508674217    1.0681759402    3.4623449586
C       -2.1229464684    0.1114441172    1.4603390756
C       -2.5588239026   -2.2810895506    0.8689941582
C       -1.7653417273   -1.0484889295    0.8402720283
C       -3.3442209510   -4.8651354658    1.5054333587
N        0.5454862191   -1.0848458527   -0.3618188713
N       -2.2424463764   -3.2539119574    0.0883999838
O       -3.0336213703   -4.4032582628    0.1805650458
F       -6.8964014123    1.3806346051    4.1114275168
H       -4.6841226178   -0.6529792637    0.7595837989
H       -2.4283486160    1.6711389022    3.6039397486
H       -6.7805492698   -0.0974618257    1.9788952156
H       -4.5424990945    2.2339277189    4.8055173387
H       -1.3797935931    0.9057389273    1.4709643042
H       -3.3703791140   -2.3317166327    1.5936342891
H       -3.6481935512   -5.9048100244    1.3724833815
H       -4.1702780308   -4.3123394771    1.9699868862
H       -2.4549686735   -4.8136584121    2.1434124439
24   
torsion grid (-30,)
C       -0.4785290832   -1.0424650062    0.1203316726
C       -4.6175947653   -0.1042032813    1.6847388212
C       -3.3632654661    1.2716002315    3.2336787297
C       -5.7962618803    0.1948695837    2.3671721969
C       -4.5302965294    1.5700691122    3.9340758222
C       -3.3779471905    0.4105234186    2.1175606399
C       -5.7287826605    1.0171961846    3.4889460207
C       -2.1171960919    0.1319085330    1.4256201117
C       -2.4945818300   -2.2828961892    0.8826660232
C       -1.7390056193   -1.0279495595    0.8182935409
C       -3.4488054717   -4.7700992822    1.4909477019
N        0.5477586385   -1.0138996883   -0.4298540461
N       -2.1445857871   -3.2629600208    0.1233269666
O       -2.8621100489   -4.4435524481    0.2213128178
F       -6.8700137516    1.3071062330    4.1564403231
H       -4.6700632092   -0.6997133269    0.7790236502
H       -2.4201963812    1.6977889731    3.5659700768
H       -6.7575934759   -0.1826972536    2.0327578533
H       -4.5246283680    2.2206965614    4.8029420573
H       -1.3977713997    0.9475136405    1.4068450872
H       -3.2975358971   -2.3374352773    1.6150937950
H       -3.6864182394   -5.8321703854    1.4171373806
H       -4.3726358128   -4.2111803377    1.6865783166
H       -2.7301848031   -4.6011306363    2.3011841098
24   
torsion grid (-15,)
C       -0.4694486869   -1.0114547147    0.0891210013
C       -4.6041193755   -0.1492828335    1.7120937252
C       -3.3576818827    1.2880819393    3.2083876590
C       -5.7782299567    0.1330021743    2.4095120977
C       -4.5198016455    1.5705976082    3.9238204341
C       -3.3699159687    0.4048557296    2.1099186237
C       -5.7121908725    0.9793977571    3.5132919853
C       -2.1154846478    0.1452265413    1.3982628153
C       -2.4323954802   -2.2930473684    0.9215123852
C       -1.7166130936   -1.0177868145    0.8109992734
C       -3.5349437095   -4.7079645639    1.4589045049
N        0.5443465511   -0.9644016769   -0.4824957296
N       -2.0572331869   -3.2806958449    0.1829352389
O       -2.7051132183   -4.4893330882    0.3094672400
F       -6.8483072433    1.2538598111    4.1963516083
H       -4.6571467957   -0.7645592144    0.8197537117
H       -2.4202666496    1.7450228033    3.5148017933
H       -6.7353126176   -0.2756563304    2.1003336059
H       -4.5148817210    2.2386698165    4.7793325343
H       -1.4198501579    0.9797773751    1.3464233175
H       -3.2239065834   -2.3474367714    1.6649855077
H       -3.7896685468   -5.7670725925    1.4104653714
H       -4.4563261042   -4.1129818147    1.4240008106
H       -2.9866337873   -4.4976407144    2.3850927629
24   
torsion grid (0,)
C       -0.4611035333   -0.9975165003    0.0758701234
C       -4.5922403707   -0.2012602583    1.7446360710
C       -3.3599116262    1.3069112447    3.1811313701
C       -5.7617563825    0.0705739416    2.4537741108
C       -4.5169776485    1.5798267499    3.9084737801
C       -3.3665514676    0.3944810419    2.1067703520
C       -5.7000369257    0.9479073971    3.5334323954
C       -2.1171840994    0.1486303844    1.3811750960
C       -2.3743881105   -2.3093165682    0.9749559921
C       -1.6966498198   -1.0183136867    0.8173952095
C       -3.6041211179   -4.6717060138    1.4173055111
N        0.5417340846   -0.9373941604   -0.5135338140
N       -1.9771121370   -3.3066521566    0.2609842038
O       -2.5647215870   -4.5365182186    0.4395816726
F       -6.8319617514    1.2117707850    4.2276036931
H       -4.6435404423   -0.8416764733    0.8701002824
H       -2.4297251973    1.7954227793    3.4595399727
H       -6.7129706514   -0.3701628405    2.1717116012
H       -4.5153221484    2.2706446731    4.7457518820
H       -1.4442586812    0.9990858806    1.2977921976
H       -3.1557495278   -2.3623160073    1.7286309121
H       -3.8892711630   -5.7225772713    1.3632965472
H       -4.4702814868   -4.0434301579    1.1743998727
H       -3.2420597156   -4.4397264894    2.4265796196
24   
torsion grid (15,)
C       -0.0911450532   -1.1602551124    0.9301561948
C       -4.4852984727   -0.2236418275    1.4920347234
C       -3.5985190619    1.3829896599    3.0702885837
C       -5.7841945273    0.1082504282    1.8755575833
C       -4.8900284147    1.7164722019    3.4740308645
C       -3.3688354905    0.3912397485    2.0953046245
C       -5.9633434470    1.0649772047    2.8714364416
C       -1.9877467270    0.0847341499    1.7130541860
C       -2.1918871011   -2.3950399510    1.4309966730
C       -1.4693158048   -1.1220385596    1.3500627036
C       -3.6568608309   -4.6724790084    1.4868614647
N        1.0246087445   -1.1452763678    0.5962504402
N       -1.6527419231   -3.4462488916    0.9152911849
O       -2.2872708467   -4.6595774457    1.0628934186
F       -7.2222948744    1.3874710685    3.2504212132
H       -4.3400107597   -0.9286166031    0.6800058105
H       -2.7512941983    1.8860934880    3.5291109940
H       -6.6498669671   -0.3474281832    1.4048537802
H       -5.0733608446    2.4689895221    4.2345047929
H       -1.2950377050    0.9229756348    1.7373333418
H       -3.1366885275   -2.3895877111    1.9686455738
H       -3.9638659698   -5.7129805255    1.3775163280
H       -4.2728216681   -4.0331845522    0.8424075030
H       -3.7700933934   -4.3697583719    2.5354257488
24   
torsion grid (30,)
C       -0.0893388542   -1.1597000449    0.9227177814
C       -4.4856056602   -0.2685406719    1.5407513965
C       -3.5935530631    1.4116744093    3.0366809754
C       -5.7819548013    0.0587690758    1.9362583944
C       -4.8816825616    1.7420517061    3.4531152801
C       -3.3669045737    0.3856701646    2.0969287025
C       -5.9558440601    1.0512936972    2.8974775005
C       -1.9887831163    0.0852956091    1.7009086931
C       -2.1619537623   -2.4041957192    1.5074219504
C       -1.4595950054   -1.1257027175    1.3681027657
C       -3.6876249597   -4.6679191693    1.3996266819
N        1.0192591939   -1.1402114889    0.5660711685
N       -1.6250410811   -3.4682540622    1.0185129559
O       -2.2603382583   -4.6769479429    1.2509289954
F       -7.2118358898    1.3698948312    3.2884557454
H       -4.3455369229   -1.0026834784    0.7541351660
H       -2.7455136489    1.9447945848    3.4585473862
H       -6.6494647877   -0.4278532903    1.5012636396
H       -5.0619375723    2.5210427612    4.1872162835
H       -1.3075855852    0.9331983168    1.6856593903
H       -3.0971466519   -2.3956181945    2.0630626411
H       -3.9812856767   -5.7123233549    1.2868253113
H       -4.1511561501   -4.0617199325    0.6121388937
H       -4.0099134886   -4.3114378582    2.3861596249
24   
torsion grid (45,)
C       -0.0937380321   -1.1676532917    0.9180939091
C       -4.4860604077   -0.3083116504    1.5941953081
C       -3.5877590557    1.4416538806    3.0055939290
C       -5.7786726451    0.0186642887    2.0016049811
C       -4.8721041282    1.7716486216    3.4332679456
C       -3.3660393361    0.3816963452    2.1029109904
C       -5.9476064773    1.0462571318    2.9262277244
C       -1.9920546725    0.0828186841    1.6937079453
C       -2.1406447911   -2.4120106763    1.5878609210
C       -1.4545638019   -1.1324804316    1.3908979548
C       -3.6964876047   -4.6882478149    1.2932674107
N        1.0070152151   -1.1486482288    0.5379244529
N       -1.6140282839   -3.4871372922    1.1163069123
O       -2.2674937335   -4.6835074488    1.4286905145
F       -7.1997994793    1.3647268458    3.3282626729
H       -4.3515599117   -1.0712805837    0.8344917205
H       -2.7390008052    2.0014791339    3.3897385903
H       -6.6477846302   -0.4954954291    1.6031124866
H       -5.0489038291    2.5767139800    4.1395095089
H       -1.3213008838    0.9373427060    1.6370019943
H       -3.0594911003   -2.3988468149    2.1716922468
H       -3.9691701119   -5.7443406576    1.2600173272
H       -3.9898821448   -4.1977999841    0.3578169661
H       -4.2113069540   -4.2176546939    2.1405757486
24   
torsion grid (60,)
C       -0.1077623921   -1.1632597338    0.9107908237
C       -4.4871306671   -0.3213884980    1.6471514911
C       -3.5857861975    1.4795988424    2.9916910840
C       -5.7761240536    0.0024302077    2.0679493775
C       -4.8661314367    1.8069167685    3.4326721094
C       -3.3671690797    0.3961808956    2.1165203107
C       -5.9412613807    1.0543776461    2.9655747070
C       -1.9978148001    0.0996584689    1.6921610797
C       -2.1315480337   -2.3965856932    1.6677395300
C       -1.4565144800   -1.1199805072    1.4152926104
C       -3.6900866506   -4.6972006508    1.1807917791
N        0.9834051621   -1.1512359404    0.5036212400
N       -1.6270617445   -3.4840402867    1.2061214766
O       -2.3193280164   -4.6557181055    1.5962355028
F       -7.1897388962    1.3701490652    3.3798184706
H       -4.3565232349   -1.1038559059    0.9067490273
H       -2.7372280198    2.0599481536    3.3444897665
H       -6.6458520220   -0.5328405792    1.6998564055
H       -5.0405662591    2.6299365862    4.1184952373
H       -1.3370858002    0.9584135003    1.5943711230
H       -3.0237987627   -2.3756079792    2.2931458844
H       -4.0118120978   -5.7224963521    1.3727508704
H       -3.7700495271   -4.4777113139    0.1094805166
H       -4.3336587774   -4.0139025500    1.7500944438
24   
torsion grid (75,)
C       -0.1401618118   -1.1994691227    0.8988268273
C       -4.5053733578   -0.3380981378    1.6932632430
C       -3.5796023299    1.5019353618    2.9672756254
C       -5.7862478735   -0.0032967050    2.1294483110
C       -4.8513914249    1.8408919184    3.4235064642
C       -3.3774905431    0.3932249729    2.1201640155
C       -5.9344287768    1.0741381885    2.9994183752
C       -2.0165260703    0.0841958304    1.6796361987
C       -2.1486304947   -2.4130710885    1.7244050897
C       -1.4790871826   -1.1422826012    1.4268957127
C       -3.6347084294   -4.7858587298    1.0563403619
N        0.9432109183   -1.1996675648    0.4711077299
N       -1.6556077294   -3.5149018814    1.2876811988
O       -2.3916415954   -4.6478049079    1.7495831009
F       -7.1746170888    1.4012705956    3.4285193893
H       -4.3881778282   -1.1411431169    0.9730077580
H       -2.7249139129    2.0927021325    3.2863753778
H       -6.6623858488   -0.5497219868    1.7945051936
H       -5.0136046794    2.6833319148    4.0884104327
H       -1.3583149570    0.9399143732    1.5444279055
H       -3.0279449289   -2.3870362518    2.3695247228
H       -4.0564553205   -5.7306678819    1.4051004991
H       -3.4711575707   -4.8284581048   -0.0274330668
H       -4.3344198206   -3.9716774141    1.2907777437
24   
torsion grid (90,)
C       -0.1942437620   -1.2189267468    0.9033627064
C       -4.5435122771   -0.3008513252    1.7518940082
C       -3.5732709869    1.5585591792    2.9631439344
C       -5.8118558925    0.0602551632    2.2032865521
C       -4.8321276637    1.9238817515    3.4343614522
C       -3.3995836611    0.4271055424    2.1398866440
C       -5.9317245193    1.1601972760    3.0490856379
C       -2.0498263738    0.0933449878    1.6840448369
C       -2.2032967762   -2.4037340246    1.7664207244
C       -1.5265410799   -1.1420699707    1.4453014929
C       -3.5345901427   -4.9257837784    0.9409007473
N        0.8840923821   -1.2366857337    0.4633366124
N       -1.7177408486   -3.5176192132    1.3521482571
O       -2.4829458175   -4.6157527022    1.8571150351
F       -7.1598548174    1.5125769204    3.4925133055
H       -4.4496501344   -1.1233277557    1.0505820634
H       -2.7060209365    2.1466850403    3.2518039757
H       -6.7002000242   -0.4841262995    1.8986082475
H       -4.9720378554    2.7840996994    4.0813120889
H       -1.3847238278    0.9394922359    1.5242542859
H       -3.0818857445   -2.3721646793    2.4127056011
H       -4.0069645703   -5.8298060755    1.3308378382
H       -3.1353788636   -5.1145229716   -0.0630654963
H       -4.2762500404   -4.1155026571    0.8921050777
24   
torsion grid (105,)
C       -0.2568335309   -1.2456834398    0.9016079265
C       -4.5840331754   -0.2443158139    1.7938468911
C       -3.5624204583    1.6102971241    2.9684051401
C       -5.8391496568    0.1465944475    2.2572793781
C       -4.8073375523    2.0061182295    3.4518129427
C       -3.4208489969    0.4656935595    2.1570712602
C       -5.9262803502    1.2590060203    3.0905746729
C       -2.0832357964    0.1021870006    1.6885266142
C       -2.2786898073   -2.3928624863    1.7829836895
C       -1.5834809773   -1.1438465379    1.4534609760
C       -3.3982715194   -5.1161540227    0.8562483648
N        0.8171459922   -1.2856534506    0.4523525508
N       -1.8040298646   -3.5174821869    1.3835365377
O       -2.5833954962   -4.5905309042    1.9064887504
F       -7.1414477531    1.6404460471    3.5458953208
H       -4.5160872222   -1.0776406354    1.1025860472
H       -2.6802766647    2.1850884273    3.2381762460
H       -6.7416163701   -0.3847584260    1.9716840418
H       -4.9218478589    2.8767850459    4.0897377005
H       -1.4042187552    0.9347247384    1.5163673840
H       -3.1595504737   -2.3503298759    2.4249722859
H       -3.8764384944   -6.0060769548    1.2707519948
H       -2.7873940266   -5.3865056806   -0.0130606390
H       -4.1647768866   -4.3897191812    0.5521177828
24   
torsion grid (120,)
C       -0.3293934945   -1.2791497307    0.8793408309
C       -4.6252639529   -0.1741220874    1.8119540795
C       -3.5452965183    1.6491612961    2.9832330044
C       -5.8658118784    0.2482345545    2.2870247379
C       -4.7754599751    2.0761362964    3.4778735816
C       -3.4406062551    0.5038046867    2.1672501404
C       -5.9167491467    1.3600310739    3.1239882881
C       -2.1166662548    0.1079664212    1.6861603061
C       -2.3734876959   -2.3829888093    1.7607074617
C       -1.6502343979   -1.1490928444    1.4397176055
C       -3.2622643236   -5.3053242709    0.7825349132
N        0.7402482696   -1.3441776806    0.4226227035
N       -1.9187723214   -3.5162043847    1.3594105357
O       -2.7080944195   -4.5711607664    1.8786780607
F       -7.1178269149    1.7719977601    3.5907616601
H       -4.5855276856   -1.0071992049    1.1182646149
H       -2.6461177087    2.1996581147    3.2474515350
H       -6.7841500042   -0.2587284018    2.0077335258
H       -4.8616216417    2.9475685323    4.1192156127
H       -1.4171994646    0.9235779429    1.5152577484
H       -3.2560794128   -2.3276388366    2.3985969099
H       -3.7372364271   -6.1831817237    1.2252491016
H       -2.4750128098   -5.6116365926    0.0847889310
H       -4.0108013705   -4.7039774558    0.2503598375
24   
torsion grid (135,)
C       -0.4009659830   -1.3066133374    0.8562250305
C       -4.6630473941   -0.1030191409    1.8236506806
C       -3.5296981737    1.6764341038    3.0120661845
C       -5.8898581204    0.3468011656    2.3092063055
C       -4.7461347057    2.1303495057    3.5167148859
C       -3.4591317036    0.5386899385    2.1818179501
C       -5.9076704290    1.4495205673    3.1593241153
C       -2.1481720416    0.1142200273    1.6896295554
C       -2.4695901461   -2.3706872731    1.7247201080
C       -1.7167542837   -1.1514722514    1.4227029856
C       -3.1260079249   -5.4619036707    0.7395441621
N        0.6651260085   -1.3943652907    0.3949557148
N       -2.0398870056   -3.5084263680    1.3065437171
O       -2.8417378915   -4.5493333514    1.8064496376
F       -7.0956206913    1.8879671735    3.6363275778
H       -4.6487894849   -0.9287801967    1.1203061033
H       -2.6149875941    2.1993143964    3.2791375019
H       -6.8224957080   -0.1322851331    2.0280618807
H       -4.8062614531    2.9960478025    4.1687197952
H       -1.4270523294    0.9128314186    1.5292697823
H       -3.3520986412   -2.3049861551    2.3613305431
H       -3.6234566254   -6.3140479258    1.2067698540
H       -2.1999634380   -5.7826898628    0.2511780928
H       -3.7913487413   -4.9984570707    0.0012428783
24   
torsion grid (150,)
C       -0.4728016121   -1.3317801676    0.8281898158
C       -4.7002371904   -0.0382895627    1.8317479903
C       -3.5182884359    1.6906820031    3.0470220929
C       -5.9138988193    0.4350021919    2.3280411837
C       -4.7214538382    2.1677826493    3.5621763447
C       -3.4791508957    0.5658287302    2.1973410828
C       -5.9009787308    1.5234838190    3.1963359612
C       -2.1808115934    0.1165952963    1.6935526472
C       -2.5641962325   -2.3602762224    1.6797735474
C       -1.7834826483   -1.1547934388    1.4007859238
C       -2.9981397507   -5.5835891282    0.7306553411
N        0.5897024528   -1.4395065369    0.3628463677
N       -2.1611213314   -3.4987758161    1.2361362418
O       -2.9815499338   -4.5285845678    1.7013925914
F       -7.0762904882    1.9846767909    3.6838678412
H       -4.7091878477   -0.8525247833    1.1150068071
H       -2.5896612873    2.1849352736    3.3205626191
H       -6.8592620225   -0.0150982713    2.0414889818
H       -4.7575681401    3.0237065385    4.2287237003
H       -1.4389434204    0.8987149828    1.5477710347
H       -3.4459026097   -2.2866371489    2.3164694529
H       -3.5380137779   -6.4064599158    1.2028839618
H       -1.9776493964   -5.8902832130    0.4814422246
H       -3.5212694609   -5.2632897050   -0.1772639446
24   
torsion grid (165,)
C       -0.5270704188   -1.3514822742    0.7868134439
C       -4.7225953402    0.0161422726    1.8270490047
C       -3.5003138047    1.6882103460    3.0802999242
C       -5.9246577702    0.5070469818    2.3344551763
C       -4.6918072210    2.1825573802    3.6064457816
C       -3.4872523168    0.5823453267    2.2052529795
C       -5.8864301019    1.5752368257    3.2268607481
C       -2.1999450300    0.1144214913    1.6900055551
C       -2.6400090628   -2.3523904005    1.6133567817
C       -1.8336326635   -1.1584177244    1.3641966656
C       -2.8868602194   -5.6665727282    0.7409059270
N        0.5326606612   -1.4740460774    0.3188013076
N       -2.2654756661   -3.4870911127    1.1356218239
O       -3.1134811849   -4.5065161614    1.5539757478
F       -7.0506950472    2.0533110760    3.7251183232
H       -4.7511490982   -0.7816743268    1.0925601557
H       -2.5602640002    2.1539937742    3.3645842340
H       -6.8803356061    0.0859221379    2.0382185062
H       -4.7074027033    3.0240219937    4.2919461630
H       -1.4390242458    0.8815530074    1.5646784937
H       -3.5210976253   -2.2745118153    2.2503284546
H       -3.5153877413   -6.4486902215    1.1705878651
H       -1.8338672763   -5.9608655092    0.7787924694
H       -3.1817129766   -5.4733682974   -0.2956990380
24   
torsion grid (180,)
C       -0.5822809977   -1.3572029471    0.7264976512
C       -4.7466725920    0.0605959984    1.8161421311
C       -3.4909122554    1.6731423767    3.1137210775
C       -5.9386464781    0.5599079001    2.3388686458
C       -4.6724712755    2.1750444995    3.6550032207
C       -3.5002125486    0.5921737610    2.2081303203
C       -5.8790712847    1.6017939140    3.2607227374
C       -2.2228377349    0.1143983881    1.6773853186
C       -2.7093646987   -2.3411703773    1.5348119357
C       -1.8832370281   -1.1556044428    1.3137449207
C       -2.8124790648   -5.7093272378    0.7860537403
N        0.4736098571   -1.4880572138    0.2520947989
N       -2.3622127036   -3.4662809259    1.0155913526
O       -3.2378051089   -4.4771574522    1.3865139949
F       -7.0334441371    2.0880587269    3.7741213021
H       -4.7913285752   -0.7156722608    1.0596935477
H       -2.5418403238    2.1128075300    3.4094511686
H       -6.9024671785    0.1655698546    2.0323220887
H       -4.6712579067    2.9972295556    4.3636724405
H       -1.4468270381    0.8694963778    1.5731767267
H       -3.5860131271   -2.2652846674    2.1781000040
H       -3.5344103017   -6.4568728947    1.1195652769
H       -1.8071697333   -5.9749013817    1.1264713515
H       -2.8265507589   -5.6295985586   -0.3052789387
