
  -OEChem-05262117483D

 71 75  0     1  0  0  0  0  0999 V2000
    3.6748   -2.5414   -4.2259 C   0  0  0  0  0  0  0  0  0  0  0  0
    3.8050   -3.0129   -2.9142 C   0  0  0  0  0  0  0  0  0  0  0  0
    2.7836   -1.4962   -4.4912 C   0  0  0  0  0  0  0  0  0  0  0  0
    7.9984   -6.7822   -5.2432 C   0  0  0  0  0  0  0  0  0  0  0  0
    8.3324   -5.4413   -5.4508 C   0  0  0  0  0  0  0  0  0  0  0  0
    3.0491   -2.4527   -1.8836 C   0  0  0  0  0  0  0  0  0  0  0  0
    2.0435   -0.9212   -3.4547 C   0  0  0  0  0  0  0  0  0  0  0  0
    0.3986   -3.7911    0.7981 C   0  0  0  0  0  0  0  0  0  0  0  0
   -0.1244   -3.4193   -1.5175 C   0  0  0  0  0  0  0  0  0  0  0  0
   -1.2056   -1.0262    1.4889 C   0  0  0  0  0  0  0  0  0  0  0  0
    0.0627   -5.1356    0.6639 C   0  0  0  0  0  0  0  0  0  0  0  0
   -0.4830   -4.7604   -1.6634 C   0  0  0  0  0  0  0  0  0  0  0  0
   -1.7515   -0.3985    2.6081 C   0  0  0  0  0  0  0  0  0  0  0  0
    6.6750   -7.1081   -4.9477 C   0  0  0  0  0  0  0  0  0  0  0  0
    0.3761    0.6954    2.9923 C   0  0  0  0  0  0  0  0  0  0  0  0
    7.3205   -4.4836   -5.3442 C   0  0  0  0  0  0  0  0  0  0  0  0
    0.3274   -2.9054   -0.2922 C   0  0  0  0  0  0  0  0  0  0  0  0
    2.1559   -1.3952   -2.1358 C   0  0  0  0  0  0  0  0  0  0  0  0
    0.1194   -0.7965    1.0871 C   0  0  0  0  0  0  0  0  0  0  0  0
    0.9231    0.0715    1.8687 C   0  0  0  0  0  0  0  0  0  0  0  0
   -0.3846   -5.6318   -0.5688 C   0  0  0  0  0  0  0  0  0  0  0  0
   -0.9543    0.4713    3.3613 C   0  0  0  0  0  0  0  0  0  0  0  0
    5.7286   -6.0747   -4.8689 C   0  0  0  0  0  0  0  0  0  0  0  0
    0.6633   -1.4673   -0.1247 C   0  0  0  0  0  0  0  0  0  0  0  0
    1.4003   -0.7618   -1.0254 C   0  0  0  0  0  0  0  0  0  0  0  0
    2.3724    0.2979    1.5026 C   0  0  0  0  0  0  0  0  0  0  0  0
    1.5400    0.7417   -0.8690 C   0  0  0  0  0  0  0  0  0  0  0  0
    2.5570    1.1365    0.2209 C   0  0  0  0  0  0  0  0  0  0  0  0
    4.2995   -6.3738   -4.5185 C   0  0  0  0  0  0  0  0  0  0  0  0
    0.6213   -8.6585   -1.6168 C   0  0  0  0  0  0  0  0  0  0  0  0
    1.9716   -7.9392   -1.4842 C   0  0  0  0  0  0  0  0  0  0  0  0
   -0.5859   -7.7382   -1.7757 C   0  0  0  0  0  0  0  0  0  0  0  0
    2.3500   -7.1403   -2.7330 C   0  0  0  0  0  0  0  0  0  0  0  0
    6.0462   -4.7823   -5.0578 N   0  0  0  0  0  0  0  0  0  0  0  0
    4.8496   -8.1495   -2.5624 O   0  0  0  0  0  0  0  0  0  0  0  0
   -1.4205    1.1240    4.4785 O   0  0  0  0  0  0  0  0  0  0  0  0
   -0.7692   -6.9501   -0.5892 O   0  0  0  0  0  0  0  0  0  0  0  0
    4.1690   -6.7938   -2.7071 S   0  0  1  0  0  0  0  0  0  0  0  0
    4.2823   -2.9833   -5.0099 H   0  0  0  0  0  0  0  0  0  0  0  0
    4.5190   -3.8024   -2.6976 H   0  0  0  0  0  0  0  0  0  0  0  0
    2.6714   -1.1207   -5.5057 H   0  0  0  0  0  0  0  0  0  0  0  0
    8.7558   -7.5594   -5.3051 H   0  0  0  0  0  0  0  0  0  0  0  0
    9.3491   -5.1394   -5.6854 H   0  0  0  0  0  0  0  0  0  0  0  0
    3.1547   -2.8235   -0.8680 H   0  0  0  0  0  0  0  0  0  0  0  0
    1.3555   -0.1079   -3.6741 H   0  0  0  0  0  0  0  0  0  0  0  0
    0.7283   -3.4193    1.7645 H   0  0  0  0  0  0  0  0  0  0  0  0
   -0.2173   -2.7534   -2.3696 H   0  0  0  0  0  0  0  0  0  0  0  0
   -1.8223   -1.7071    0.9092 H   0  0  0  0  0  0  0  0  0  0  0  0
    0.1296   -5.8188    1.5058 H   0  0  0  0  0  0  0  0  0  0  0  0
   -0.8721   -5.1025   -2.6170 H   0  0  0  0  0  0  0  0  0  0  0  0
   -2.7858   -0.5861    2.8929 H   0  0  0  0  0  0  0  0  0  0  0  0
    6.3712   -8.1305   -4.7485 H   0  0  0  0  0  0  0  0  0  0  0  0
    0.9804    1.3584    3.6058 H   0  0  0  0  0  0  0  0  0  0  0  0
    7.5408   -3.4275   -5.4923 H   0  0  0  0  0  0  0  0  0  0  0  0
    2.8994    0.7734    2.3355 H   0  0  0  0  0  0  0  0  0  0  0  0
    2.8435   -0.6783    1.3420 H   0  0  0  0  0  0  0  0  0  0  0  0
    1.8420    1.1942   -1.8175 H   0  0  0  0  0  0  0  0  0  0  0  0
    0.5665    1.1665   -0.6016 H   0  0  0  0  0  0  0  0  0  0  0  0
    2.4314    2.2030    0.4433 H   0  0  0  0  0  0  0  0  0  0  0  0
    3.5815    1.0008   -0.1448 H   0  0  0  0  0  0  0  0  0  0  0  0
    3.6598   -5.5118   -4.7161 H   0  0  0  0  0  0  0  0  0  0  0  0
    3.9309   -7.2628   -5.0379 H   0  0  0  0  0  0  0  0  0  0  0  0
    0.6493   -9.3376   -2.4799 H   0  0  0  0  0  0  0  0  0  0  0  0
    0.4628   -9.2809   -0.7293 H   0  0  0  0  0  0  0  0  0  0  0  0
    2.7464   -8.6939   -1.3146 H   0  0  0  0  0  0  0  0  0  0  0  0
    1.9631   -7.2820   -0.6086 H   0  0  0  0  0  0  0  0  0  0  0  0
   -1.4996   -8.3285   -1.8945 H   0  0  0  0  0  0  0  0  0  0  0  0
   -0.4837   -7.1043   -2.6602 H   0  0  0  0  0  0  0  0  0  0  0  0
    2.1529   -7.7207   -3.6414 H   0  0  0  0  0  0  0  0  0  0  0  0
    1.8429   -6.1726   -2.7972 H   0  0  0  0  0  0  0  0  0  0  0  0
   -2.3483    0.8783    4.6215 H   0  0  0  0  0  0  0  0  0  0  0  0
  1  2  1  0  0  0  0
  1  3  2  0  0  0  0
  1 39  1  0  0  0  0
  2  6  2  0  0  0  0
  2 40  1  0  0  0  0
  3  7  1  0  0  0  0
  3 41  1  0  0  0  0
  4  5  1  0  0  0  0
  4 14  2  0  0  0  0
  4 42  1  0  0  0  0
  5 16  2  0  0  0  0
  5 43  1  0  0  0  0
  6 18  1  0  0  0  0
  6 44  1  0  0  0  0
  7 18  2  0  0  0  0
  7 45  1  0  0  0  0
  8 11  2  0  0  0  0
  8 17  1  0  0  0  0
  8 46  1  0  0  0  0
  9 12  1  0  0  0  0
  9 17  2  0  0  0  0
  9 47  1  0  0  0  0
 10 13  2  0  0  0  0
 10 19  1  0  0  0  0
 10 48  1  0  0  0  0
 11 21  1  0  0  0  0
 11 49  1  0  0  0  0
 12 21  2  0  0  0  0
 12 50  1  0  0  0  0
 13 22  1  0  0  0  0
 13 51  1  0  0  0  0
 14 23  1  0  0  0  0
 14 52  1  0  0  0  0
 15 20  1  0  0  0  0
 15 22  2  0  0  0  0
 15 53  1  0  0  0  0
 16 34  1  0  0  0  0
 16 54  1  0  0  0  0
 17 24  1  0  0  0  0
 18 25  1  0  0  0  0
 19 20  2  0  0  0  0
 19 24  1  0  0  0  0
 20 26  1  0  0  0  0
 21 37  1  0  0  0  0
 22 36  1  0  0  0  0
 23 29  1  0  0  0  0
 23 34  2  0  0  0  0
 24 25  2  0  0  0  0
 25 27  1  0  0  0  0
 26 28  1  0  0  0  0
 26 55  1  0  0  0  0
 26 56  1  0  0  0  0
 27 28  1  0  0  0  0
 27 57  1  0  0  0  0
 27 58  1  0  0  0  0
 28 59  1  0  0  0  0
 28 60  1  0  0  0  0
 29 38  1  0  0  0  0
 29 61  1  0  0  0  0
 29 62  1  0  0  0  0
 30 31  1  0  0  0  0
 30 32  1  0  0  0  0
 30 63  1  0  0  0  0
 30 64  1  0  0  0  0
 31 33  1  0  0  0  0
 31 65  1  0  0  0  0
 31 66  1  0  0  0  0
 32 37  1  0  0  0  0
 32 67  1  0  0  0  0
 32 68  1  0  0  0  0
 33 38  1  0  0  0  0
 33 69  1  0  0  0  0
 33 70  1  0  0  0  0
 35 38  2  0  0  0  0
 36 71  1  0  0  0  0
M  END
$$$$
