71
0 1 C33H33NO3S
C                     4.417283852695    -2.661270367303    -3.123473894171
C                     4.788625175941    -1.696601172418    -2.179974131967
C                     3.079904268451    -3.065954072364    -3.201951668279
C                     5.500897939632    -5.810178222170    -8.343784894322
C                     5.578848954870    -4.415052799240    -8.322991563759
C                     3.832998672358    -1.142826339175    -1.324757511829
C                     2.128246694492    -2.511534658944    -2.341420362661
C                     1.569404851871    -3.910324110172     0.913525709754
C                    -0.350601164409    -3.815800360093    -0.525990791263
C                    -1.564642913154    -1.387317122138     1.487497681347
C                     1.615503722403    -5.302189309349     0.778882632870
C                    -0.315439762392    -5.198068443712    -0.679238601143
C                    -2.409923918947    -0.778421095090     2.415367665457
C                     5.280061129272    -6.486171278936    -7.144717897536
C                    -0.567164979920     0.616379629994     3.130531234290
C                     5.434869604458    -3.764016020193    -7.095328931197
C                     0.608585870993    -3.143029950206     0.248564399715
C                     2.486226526006    -1.549177857342    -1.380620971924
C                    -0.226279784271    -0.994425834878     1.334766575971
C                     0.279596139823     0.010359935091     2.199310838756
C                     0.685971137583    -5.946261026199    -0.046247437035
C                    -1.908642861741     0.237682060881     3.235406801882
C                     5.143535689673    -5.743374520671    -5.961673127248
C                     0.651715321818    -1.650622409236     0.325908734447
C                     1.505353057079    -0.929968859680    -0.446019525605
C                     1.742258344025     0.390482636642     2.154789281443
C                     1.492976702810     0.590357144864    -0.374367327873
C                     2.133090428129     1.184679292857     0.896004472389
C                     4.868010504840    -6.419984756818    -4.648177623026
C                     1.933577549030    -9.129432264064    -1.169190328818
C                     1.955454666271    -8.577074535641    -2.604459605916
C                     1.884980697474    -8.039606266394    -0.103629016587
C                     3.204856448991    -7.750093006970    -2.912729435154
N                     5.222303728065    -4.404264251775    -5.938132837784
O                     2.159627749768    -6.046277556348    -4.731775557071
O                    -2.680777971873     0.884926438531     4.173186931037
O                     0.679852414957    -7.295741432722    -0.301079803224
S                     3.164983041419    -7.181745167815    -4.668136361751
H                     5.142533745542    -3.083751122183    -3.812779954161
H                     5.824256055799    -1.370412990069    -2.111425050566
H                     2.775194330728    -3.813812521777    -3.930529154430
H                     5.607552759759    -6.359382959310    -9.275652679964
H                     5.745933182444    -3.843014118377    -9.230960224871
H                     4.138113494147    -0.396700257196    -0.595390837245
H                     1.094925355651    -2.824692281114    -2.428307821001
H                     2.315150259639    -3.410930024814     1.526346861136
H                    -1.097024850359    -3.242118277068    -1.070004617473
H                    -1.960847733479    -2.185434939150     0.868339177775
H                     2.374821493730    -5.864697222893     1.312130470440
H                    -1.025765773085    -5.711964355356    -1.320278825798
H                    -3.447853957367    -1.096856413253     2.502187219777
H                     5.204944598846    -7.570295037612    -7.121213459829
H                    -0.190238746852     1.383623004824     3.801854021709
H                     5.489089799977    -2.678252336049    -7.034630045547
H                     2.006457575476     0.961692821789     3.050291098983
H                     2.336927007838    -0.530113224612     2.175888497601
H                     1.979882915094     1.005147706015    -1.261121348694
H                     0.447650830776     0.916719934525    -0.405626349593
H                     1.809391447754     2.228293329532     0.991387421046
H                     3.226542924850     1.199107457675     0.813907909342
H                     5.564107178469    -7.244033384300    -4.459484592223
H                     4.901051419690    -5.694863633953    -3.832594465637
H                     1.056858506158    -9.775630050902    -1.051236993148
H                     2.818019324737    -9.753330967753    -0.984371674255
H                     1.067927215914    -7.959753986232    -2.767789204763
H                     1.898467567162    -9.418191303085    -3.305421540112
H                     2.754357036123    -7.379574485494    -0.190279498789
H                     1.890960966174    -8.474409722266     0.904350829984
H                     3.261074505443    -6.836826308294    -2.313102068661
H                     4.120220933133    -8.337801709855    -2.774090255396
H                    -3.579015159332     0.519307859895     4.144686028565
