71
0 1 C33H33NO3S
C                     3.674777422214    -2.541392017236    -4.225897468643
C                     3.804977019227    -3.012909735066    -2.914244189044
C                     2.783589240333    -1.496238799850    -4.491177745634
C                     7.998394432070    -6.782248706486    -5.243190072106
C                     8.332354597778    -5.441273892273    -5.450846035959
C                     3.049149790742    -2.452680321005    -1.883631110375
C                     2.043468139630    -0.921155915955    -3.454739468355
C                     0.398577460434    -3.791143840097     0.798109583014
C                    -0.124415134465    -3.419253357909    -1.517515189830
C                    -1.205560032911    -1.026176038885     1.488903853366
C                     0.062749881267    -5.135595078704     0.663918492261
C                    -0.483039810744    -4.760423173924    -1.663363477731
C                    -1.751456819807    -0.398547995847     2.608061995653
C                     6.674974590270    -7.108099093855    -4.947668079540
C                     0.376050264865     0.695397021979     2.992292006668
C                     7.320465375187    -4.483576046210    -5.344186897746
C                     0.327403702402    -2.905414756157    -0.292210962510
C                     2.155942639049    -1.395173414011    -2.135763529767
C                     0.119364339076    -0.796535349605     1.087104381066
C                     0.923107394505     0.071463196799     1.868699391106
C                    -0.384605398745    -5.631773893914    -0.568822167148
C                    -0.954333702490     0.471333765248     3.361261308943
C                     5.728564739707    -6.074689117831    -4.868948439696
C                     0.663319066776    -1.467260209110    -0.124666006797
C                     1.400290663473    -0.761759410852    -1.025369895614
C                     2.372352501034     0.297930775479     1.502577617861
C                     1.539950245063     0.741739017690    -0.869026441386
C                     2.556988785256     1.136455421274     0.220884256389
C                     4.299460382404    -6.373751432939    -4.518506552335
C                     0.621323425751    -8.658478252258    -1.616752585912
C                     1.971633666808    -7.939157282045    -1.484160668690
C                    -0.585880596709    -7.738192060216    -1.775747202091
C                     2.349999843985    -7.140302395264    -2.732970545533
N                     6.046174589046    -4.782255782070    -5.057825105574
O                     4.849622618082    -8.149541355507    -2.562410555036
O                    -1.420530755138     1.124012507096     4.478518413852
O                    -0.769237764360    -6.950081370557    -0.589221800450
S                     4.169048283698    -6.793836644921    -2.707149190077
H                     4.282283761114    -2.983349673823    -5.009883475949
H                     4.519012032990    -3.802424771081    -2.697604336060
H                     2.671352473776    -1.120717521692    -5.505705297628
H                     8.755765725571    -7.559384985768    -5.305147494625
H                     9.349098777856    -5.139430322289    -5.685370618135
H                     3.154686427673    -2.823489339603    -0.868020242670
H                     1.355538982867    -0.107896984252    -3.674102573101
H                     0.728271399469    -3.419338190308     1.764482299885
H                    -0.217304674190    -2.753412221964    -2.369612077472
H                    -1.822349219608    -1.707119469081     0.909237162387
H                     0.129594556958    -5.818759624406     1.505844509246
H                    -0.872131409836    -5.102516343560    -2.616996486092
H                    -2.785789665010    -0.586061961615     2.892870414582
H                     6.371240270112    -8.130488785129    -4.748476119959
H                     0.980413439303     1.358403228604     3.605811492048
H                     7.540781512214    -3.427458366979    -5.492306033228
H                     2.899416458389     0.773397869835     2.335482253509
H                     2.843467520299    -0.678333025474     1.342048784654
H                     1.842018916448     1.194228232122    -1.817549428845
H                     0.566544641351     1.166507273357    -0.601556138049
H                     2.431397406271     2.202999881261     0.443331866303
H                     3.581469710782     1.000820158287    -0.144778916010
H                     3.659755700485    -5.511801323843    -4.716064026389
H                     3.930943108595    -7.262834129827    -5.037889232596
H                     0.649316619731    -9.337646478124    -2.479915929016
H                     0.462832813823    -9.280923898827    -0.729283255089
H                     2.746386447265    -8.693862464340    -1.314567929466
H                     1.963061578090    -7.282048406176    -0.608642979798
H                    -1.499600514500    -8.328490408200    -1.894471564832
H                    -0.483694365912    -7.104277942259    -2.660202672904
H                     2.152936457400    -7.720692598492    -3.641388631558
H                     1.842852042465    -6.172594167408    -2.797219607005
H                    -2.348257184054     0.878309442644     4.621467546195
