
  -OEChem-05262117483D

 71 75  0     1  0  0  0  0  0999 V2000
    4.4295   -1.1777   -3.8617 C   0  0  0  0  0  0  0  0  0  0  0  0
    4.4894   -1.6497   -2.5451 C   0  0  0  0  0  0  0  0  0  0  0  0
    3.4016   -0.3037   -4.2302 C   0  0  0  0  0  0  0  0  0  0  0  0
    1.0878  -15.8053   -6.6497 C   0  0  0  0  0  0  0  0  0  0  0  0
    2.3889  -16.2479   -6.9020 C   0  0  0  0  0  0  0  0  0  0  0  0
    3.5275   -1.2603   -1.6130 C   0  0  0  0  0  0  0  0  0  0  0  0
    2.4449    0.0925   -3.2918 C   0  0  0  0  0  0  0  0  0  0  0  0
    1.0557   -3.1647    0.7724 C   0  0  0  0  0  0  0  0  0  0  0  0
    0.7330   -2.9235   -1.5968 C   0  0  0  0  0  0  0  0  0  0  0  0
   -1.3069   -0.9038    1.1803 C   0  0  0  0  0  0  0  0  0  0  0  0
    1.1408   -4.5448    0.6278 C   0  0  0  0  0  0  0  0  0  0  0  0
    0.8073   -4.3093   -1.7603 C   0  0  0  0  0  0  0  0  0  0  0  0
   -2.1341   -0.4489    2.2066 C   0  0  0  0  0  0  0  0  0  0  0  0
    0.8820  -14.8896   -5.6189 C   0  0  0  0  0  0  0  0  0  0  0  0
   -0.4144    1.1321    2.8488 C   0  0  0  0  0  0  0  0  0  0  0  0
    3.4224  -15.7502   -6.1040 C   0  0  0  0  0  0  0  0  0  0  0  0
    0.8693   -2.3204   -0.3393 C   0  0  0  0  0  0  0  0  0  0  0  0
    2.4819   -0.3891   -1.9711 C   0  0  0  0  0  0  0  0  0  0  0  0
   -0.0397   -0.3457    0.9519 C   0  0  0  0  0  0  0  0  0  0  0  0
    0.4134    0.6812    1.8180 C   0  0  0  0  0  0  0  0  0  0  0  0
    1.0224   -5.1286   -0.6435 C   0  0  0  0  0  0  0  0  0  0  0  0
   -1.6845    0.5797    3.0429 C   0  0  0  0  0  0  0  0  0  0  0  0
    1.9861  -14.4451   -4.8746 C   0  0  0  0  0  0  0  0  0  0  0  0
    0.8079   -0.8453   -0.1640 C   0  0  0  0  0  0  0  0  0  0  0  0
    1.4661    0.0314   -0.9721 C   0  0  0  0  0  0  0  0  0  0  0  0
    1.7984    1.2619    1.6454 C   0  0  0  0  0  0  0  0  0  0  0  0
    1.2127    1.5213   -0.8257 C   0  0  0  0  0  0  0  0  0  0  0  0
    1.9444    2.1374    0.3838 C   0  0  0  0  0  0  0  0  0  0  0  0
    1.8223  -13.4396   -3.7695 C   0  0  0  0  0  0  0  0  0  0  0  0
    1.2084   -8.6308   -1.7368 C   0  0  0  0  0  0  0  0  0  0  0  0
    1.1185   -9.4160   -3.0510 C   0  0  0  0  0  0  0  0  0  0  0  0
    1.0317   -7.1357   -1.9607 C   0  0  0  0  0  0  0  0  0  0  0  0
    1.3280  -10.9124   -2.8309 C   0  0  0  0  0  0  0  0  0  0  0  0
    3.2374  -14.8687   -5.1121 N   0  0  0  0  0  0  0  0  0  0  0  0
    2.4903  -11.2329   -5.2397 O   0  0  0  0  0  0  0  0  0  0  0  0
   -2.4412    1.0781    4.0778 O   0  0  0  0  0  0  0  0  0  0  0  0
    1.1207   -6.4946   -0.6873 O   0  0  0  0  0  0  0  0  0  0  0  0
    1.3122  -11.7845   -4.4597 S   0  0  1  0  0  0  0  0  0  0  0  0
    5.1766   -1.4839   -4.5894 H   0  0  0  0  0  0  0  0  0  0  0  0
    5.2889   -2.3224   -2.2442 H   0  0  0  0  0  0  0  0  0  0  0  0
    3.3430    0.0690   -5.2499 H   0  0  0  0  0  0  0  0  0  0  0  0
    0.2520  -16.1652   -7.2442 H   0  0  0  0  0  0  0  0  0  0  0  0
    2.6018  -16.9595   -7.6945 H   0  0  0  0  0  0  0  0  0  0  0  0
    3.5769   -1.6359   -0.5955 H   0  0  0  0  0  0  0  0  0  0  0  0
    1.6442    0.7618   -3.5966 H   0  0  0  0  0  0  0  0  0  0  0  0
    1.1440   -2.7273    1.7632 H   0  0  0  0  0  0  0  0  0  0  0  0
    0.5704   -2.2997   -2.4700 H   0  0  0  0  0  0  0  0  0  0  0  0
   -1.6522   -1.7081    0.5369 H   0  0  0  0  0  0  0  0  0  0  0  0
    1.2995   -5.1920    1.4858 H   0  0  0  0  0  0  0  0  0  0  0  0
    0.6975   -4.7301   -2.7533 H   0  0  0  0  0  0  0  0  0  0  0  0
   -3.1177   -0.8919    2.3563 H   0  0  0  0  0  0  0  0  0  0  0  0
   -0.1143  -14.5169   -5.3949 H   0  0  0  0  0  0  0  0  0  0  0  0
   -0.0792    1.9138    3.5255 H   0  0  0  0  0  0  0  0  0  0  0  0
    4.4494  -16.0725   -6.2684 H   0  0  0  0  0  0  0  0  0  0  0  0
    2.0754    1.8405    2.5320 H   0  0  0  0  0  0  0  0  0  0  0  0
    2.5113    0.4330    1.5691 H   0  0  0  0  0  0  0  0  0  0  0  0
    1.5203    2.0501   -1.7318 H   0  0  0  0  0  0  0  0  0  0  0  0
    0.1381    1.6915   -0.7005 H   0  0  0  0  0  0  0  0  0  0  0  0
    1.5327    3.1375    0.5660 H   0  0  0  0  0  0  0  0  0  0  0  0
    3.0108    2.2623    0.1629 H   0  0  0  0  0  0  0  0  0  0  0  0
    1.0372  -13.7297   -3.0630 H   0  0  0  0  0  0  0  0  0  0  0  0
    2.7740  -13.3008   -3.2524 H   0  0  0  0  0  0  0  0  0  0  0  0
    0.4437   -8.9750   -1.0307 H   0  0  0  0  0  0  0  0  0  0  0  0
    2.1815   -8.8019   -1.2626 H   0  0  0  0  0  0  0  0  0  0  0  0
    1.8776   -9.0600   -3.7558 H   0  0  0  0  0  0  0  0  0  0  0  0
    0.1413   -9.2458   -3.5209 H   0  0  0  0  0  0  0  0  0  0  0  0
    0.0553   -6.9248   -2.4188 H   0  0  0  0  0  0  0  0  0  0  0  0
    1.8129   -6.7510   -2.6302 H   0  0  0  0  0  0  0  0  0  0  0  0
    2.3027  -11.1094   -2.3724 H   0  0  0  0  0  0  0  0  0  0  0  0
    0.5384  -11.3505   -2.2098 H   0  0  0  0  0  0  0  0  0  0  0  0
   -3.2900    0.6086    4.1003 H   0  0  0  0  0  0  0  0  0  0  0  0
  1  2  1  0  0  0  0
  1  3  2  0  0  0  0
  1 39  1  0  0  0  0
  2  6  2  0  0  0  0
  2 40  1  0  0  0  0
  3  7  1  0  0  0  0
  3 41  1  0  0  0  0
  4  5  1  0  0  0  0
  4 14  2  0  0  0  0
  4 42  1  0  0  0  0
  5 16  2  0  0  0  0
  5 43  1  0  0  0  0
  6 18  1  0  0  0  0
  6 44  1  0  0  0  0
  7 18  2  0  0  0  0
  7 45  1  0  0  0  0
  8 11  2  0  0  0  0
  8 17  1  0  0  0  0
  8 46  1  0  0  0  0
  9 12  1  0  0  0  0
  9 17  2  0  0  0  0
  9 47  1  0  0  0  0
 10 13  2  0  0  0  0
 10 19  1  0  0  0  0
 10 48  1  0  0  0  0
 11 21  1  0  0  0  0
 11 49  1  0  0  0  0
 12 21  2  0  0  0  0
 12 50  1  0  0  0  0
 13 22  1  0  0  0  0
 13 51  1  0  0  0  0
 14 23  1  0  0  0  0
 14 52  1  0  0  0  0
 15 20  1  0  0  0  0
 15 22  2  0  0  0  0
 15 53  1  0  0  0  0
 16 34  1  0  0  0  0
 16 54  1  0  0  0  0
 17 24  1  0  0  0  0
 18 25  1  0  0  0  0
 19 20  2  0  0  0  0
 19 24  1  0  0  0  0
 20 26  1  0  0  0  0
 21 37  1  0  0  0  0
 22 36  1  0  0  0  0
 23 29  1  0  0  0  0
 23 34  2  0  0  0  0
 24 25  2  0  0  0  0
 25 27  1  0  0  0  0
 26 28  1  0  0  0  0
 26 55  1  0  0  0  0
 26 56  1  0  0  0  0
 27 28  1  0  0  0  0
 27 57  1  0  0  0  0
 27 58  1  0  0  0  0
 28 59  1  0  0  0  0
 28 60  1  0  0  0  0
 29 38  1  0  0  0  0
 29 61  1  0  0  0  0
 29 62  1  0  0  0  0
 30 31  1  0  0  0  0
 30 32  1  0  0  0  0
 30 63  1  0  0  0  0
 30 64  1  0  0  0  0
 31 33  1  0  0  0  0
 31 65  1  0  0  0  0
 31 66  1  0  0  0  0
 32 37  1  0  0  0  0
 32 67  1  0  0  0  0
 32 68  1  0  0  0  0
 33 38  1  0  0  0  0
 33 69  1  0  0  0  0
 33 70  1  0  0  0  0
 35 38  2  0  0  0  0
 36 71  1  0  0  0  0
M  END
$$$$
