68
-1 1 C29H32NO6
C                     0.058714190647     0.358611240471     4.891920461628
C                    -4.064326606131    -1.425942417633     6.823828678812
C                    -0.896229293327     1.246509247169     4.399716344074
C                    -4.223069259873    -0.751728724529     5.606643860857
C                    -0.941337157822     0.537836899383     7.099859476595
C                    -6.334013171935     0.186995991239     6.375515244084
C                     0.030812480822    -0.011855680936     6.243623475937
C                    -5.040244923159    -1.292769479709     7.812945823789
C                    -6.171545698017    -0.497257495327     7.579995242183
C                    -1.903304537915     1.428361260204     6.623934072440
C                    -5.341511129056     0.060449405055     5.393321028216
C                    -1.881010418448     1.762935012180     5.255014674465
C                     1.789453161728    -2.362198558756     8.240244753047
C                     2.457528161058    -2.521411571661     7.045037352582
C                     0.962893890012    -1.007610904220     6.749431294924
C                     1.831962940747    -3.017778885085     9.552592720613
C                    -2.616989707332    -1.185318274338     9.818480784090
C                    -7.073643630111    -0.497370188906     8.797742728975
C                    -6.554242095266    -1.714219143377     9.604857902678
C                    -5.054389501910    -1.854212842166     9.223718159570
C                     3.573224563620    -3.455600159212     6.708886917107
C                     0.793057554643    -2.578141300142    10.549890490174
C                    -3.863753086565     3.930933361151     8.880982071375
C                    -2.965214061716     1.961717700813     7.552989577546
C                    -4.128209514016    -1.053115387034    10.156471592067
C                    -2.763100371878     3.437647155577     7.935002939311
C                    -4.738859435428     2.889454607438     3.307926331645
C                    -5.647621142675     2.160057584541     4.297126245229
C                    -3.283472899279     2.452187958653     3.434786936878
N                     1.920337434675    -1.653816300625     6.109916338910
O                    -2.235643881452    -2.311580446051     9.383699881751
O                     2.677404800536    -3.891667988777     9.782028956985
O                    -1.912202774423    -0.155150942801    10.029150115818
O                     0.838590925241    -1.380715832231     8.040226425043
O                    -5.432212780311     0.746304398823     4.185405759834
O                    -2.882869785525     2.593222654850     4.800895636558
H                     0.812847877429    -0.065008097388     4.235235419662
H                    -3.171226962081    -2.009833128110     7.027372988656
H                    -0.877511602163     1.526069270647     3.351268739255
H                    -3.461485535855    -0.810439184477     4.834571616978
H                    -0.992286217954     0.227553593194     8.144254705835
H                    -7.206510306725     0.811123124854     6.193439992350
H                    -6.942453884328     0.435186013953     9.363490900415
H                    -8.137671228033    -0.573084710748     8.544179663118
H                    -6.703355602353    -1.600806000005    10.683851198336
H                    -7.099316170352    -2.611041305684     9.284258006302
H                    -4.716964659543    -2.893612035276     9.242863246000
H                     3.287344566131    -4.096706340515     5.867343183031
H                     4.461165264336    -2.891110016631     6.400945728085
H                     3.820324809369    -4.074900672781     7.571717884005
H                    -0.223689795206    -2.671229736413    10.135119201657
H                     0.896451875845    -1.508398741807    10.765154519453
H                     0.907273819684    -3.160986753333    11.466491142864
H                    -4.851603428925     3.847841040055     8.410285604825
H                    -3.883024932103     3.330767900812     9.797554079703
H                    -3.714478217472     4.979905068371     9.165098342388
H                    -3.948378042449     1.844960326807     7.084622427367
H                    -2.957318991738     1.354138663548     8.461809827668
H                    -4.264313448092    -1.418305686678    11.184357667109
H                    -4.399995442718     0.008604828912    10.155180785973
H                    -1.785121555211     3.547343088341     8.419290761589
H                    -2.741798983567     4.055775949091     7.029392376518
H                    -5.059443472362     2.693825148216     2.277200093721
H                    -4.834469014809     3.968179610251     3.483318948350
H                    -5.416401833107     2.486845361712     5.313868853651
H                    -6.700874211035     2.393891410537     4.088685236401
H                    -2.639805600820     3.061297847379     2.784697734295
H                    -3.193539168824     1.404537098918     3.134242872662
