30
1 1 C12H15N2O
C                     1.491126498194    -1.928814731879     0.601557117026
C                     0.554582405292    -1.567386913954    -0.379006703856
C                     2.050454194288    -3.211912651379     0.620812997289
C                     0.172256749597    -2.487115728932    -1.361664023868
C                     1.674487370086    -4.131133779033    -0.362193659060
C                     0.752595257503    -3.758264842891    -1.348396572219
C                     1.307401499464    -3.746433879822    -4.338142389821
C                     2.084752206643    -5.579084555147    -0.523075929725
C                     1.637098407183    -5.925795505043    -1.963871827777
C                     2.902366018076    -2.148418501129    -4.790487085956
C                     2.306360700254    -2.712286759944    -6.092565348437
C                     0.498143856572    -4.920801662594    -2.288981785100
N                     2.346219618954    -3.096599439023    -3.807578687233
N                     0.444598049782    -4.533957431490    -3.721452894819
O                     1.176260924827    -3.543807120927    -5.640639326727
H                     1.778888911315    -1.205324273880     1.359087788119
H                     0.120160978324    -0.571944979455    -0.370083701854
H                     2.764515434073    -3.486951749902     1.392767017687
H                    -0.559332903197    -2.211628999407    -2.118376412365
H                     3.153815502527    -5.746198448396    -0.366410068989
H                     1.553452005797    -6.197269864787     0.209591916344
H                     2.466832085983    -5.759116352039    -2.658211484896
H                     1.315889179125    -6.962677767294    -2.080070607611
H                     3.992501679666    -2.178979543399    -4.785382759001
H                     2.562598793953    -1.131508016529    -4.574742251555
H                     1.900198325898    -1.958793827388    -6.764267603541
H                     2.990693150644    -3.373118455700    -6.626166639341
H                    -0.483970448246    -5.359893623499    -2.090105236304
H                     2.418077814791    -2.967485147427    -2.801079848921
H                    -0.233515970412    -4.986773899692    -4.326608840220
