
  -OEChem-05262117483D

 30 32  0     1  0  0  0  0  0999 V2000
    1.0910   -0.5759   -1.8998 C   0  0  0  0  0  0  0  0  0  0  0  0
   -0.3080   -0.6711   -1.9241 C   0  0  0  0  0  0  0  0  0  0  0  0
    1.7508   -0.0017   -0.8065 C   0  0  0  0  0  0  0  0  0  0  0  0
   -1.0652   -0.1957   -0.8476 C   0  0  0  0  0  0  0  0  0  0  0  0
    0.9966    0.4666    0.2707 C   0  0  0  0  0  0  0  0  0  0  0  0
   -0.3969    0.3585    0.2433 C   0  0  0  0  0  0  0  0  0  0  0  0
   -2.1149   -1.1124    2.3381 C   0  0  0  0  0  0  0  0  0  0  0  0
    1.4634    1.1555    1.5354 C   0  0  0  0  0  0  0  0  0  0  0  0
    0.2272    1.0850    2.4659 C   0  0  0  0  0  0  0  0  0  0  0  0
   -2.7961   -3.2763    2.7946 C   0  0  0  0  0  0  0  0  0  0  0  0
   -1.2710   -3.2034    2.5961 C   0  0  0  0  0  0  0  0  0  0  0  0
   -0.9827    0.9560    1.5054 C   0  0  2  0  0  0  0  0  0  0  0  0
   -3.1277   -1.8400    2.8349 N   0  0  0  0  0  0  0  0  0  0  0  0
   -2.1276    0.1802    2.0698 N   0  3  0  0  0  0  0  0  0  0  0  0
   -1.0270   -1.8266    2.1346 O   0  0  0  0  0  0  0  0  0  0  0  0
    1.6678   -0.9474   -2.7421 H   0  0  0  0  0  0  0  0  0  0  0  0
   -0.8042   -1.1092   -2.7854 H   0  0  0  0  0  0  0  0  0  0  0  0
    2.8352    0.0746   -0.7999 H   0  0  0  0  0  0  0  0  0  0  0  0
   -2.1514   -0.2606   -0.8716 H   0  0  0  0  0  0  0  0  0  0  0  0
    2.3444    0.6858    1.9812 H   0  0  0  0  0  0  0  0  0  0  0  0
    1.7293    2.1970    1.3205 H   0  0  0  0  0  0  0  0  0  0  0  0
    0.2891    0.1864    3.0849 H   0  0  0  0  0  0  0  0  0  0  0  0
    0.1346    1.9455    3.1319 H   0  0  0  0  0  0  0  0  0  0  0  0
   -3.3064   -3.7668    1.9610 H   0  0  0  0  0  0  0  0  0  0  0  0
   -3.0697   -3.7645    3.7309 H   0  0  0  0  0  0  0  0  0  0  0  0
   -0.7107   -3.3275    3.5235 H   0  0  0  0  0  0  0  0  0  0  0  0
   -0.8870   -3.8679    1.8248 H   0  0  0  0  0  0  0  0  0  0  0  0
   -1.4188    1.9382    1.2972 H   0  0  0  0  0  0  0  0  0  0  0  0
   -4.0795   -1.4969    2.8914 H   0  0  0  0  0  0  0  0  0  0  0  0
   -2.9898    0.6795    2.2555 H   0  0  0  0  0  0  0  0  0  0  0  0
  1  2  1  0  0  0  0
  1  3  2  0  0  0  0
  1 16  1  0  0  0  0
  2  4  2  0  0  0  0
  2 17  1  0  0  0  0
  3  5  1  0  0  0  0
  3 18  1  0  0  0  0
  4  6  1  0  0  0  0
  4 19  1  0  0  0  0
  5  6  2  0  0  0  0
  5  8  1  0  0  0  0
  6 12  1  0  0  0  0
  7 13  1  0  0  0  0
  7 14  2  0  0  0  0
  7 15  1  0  0  0  0
  8  9  1  0  0  0  0
  8 20  1  0  0  0  0
  8 21  1  0  0  0  0
  9 12  1  0  0  0  0
  9 22  1  0  0  0  0
  9 23  1  0  0  0  0
 10 11  1  0  0  0  0
 10 13  1  0  0  0  0
 10 24  1  0  0  0  0
 10 25  1  0  0  0  0
 11 15  1  0  0  0  0
 11 26  1  0  0  0  0
 11 27  1  0  0  0  0
 12 14  1  0  0  0  0
 12 28  1  0  0  0  0
 13 29  1  0  0  0  0
 14 30  1  0  0  0  0
M  CHG  1  14   1
M  END
$$$$
