71
0 1 C33H33NO3S
C                     3.282799907578    -0.422130704155    -4.514922186374
C                     3.697091295866    -0.993023372392    -3.305869689708
C                     2.069208610350     0.271439121833    -4.565989014895
C                     5.459463909089   -16.636791753293     0.414842230014
C                     4.435067165074   -17.549755365723     0.678595894254
C                     2.901806868269    -0.879151845137    -2.165460007602
C                     1.279709661321     0.392316987109    -3.419591994281
C                     1.318711746866    -3.422825960261     0.399095498464
C                     0.494204206323    -3.033870830680    -1.824424832548
C                    -1.221547217294    -1.678862448510     1.532680794842
C                     1.586657822849    -4.758599782718     0.081078542513
C                     0.745052455503    -4.359175744583    -2.155066792556
C                    -1.874937310898    -1.476690649723     2.747731345854
C                     5.139196817553   -15.437236685783    -0.219130764200
C                    -0.337337501669     0.330232514433     3.237569681436
C                     3.135603038014   -17.213637718068     0.290094290710
C                     0.787123054479    -2.530520642954    -0.541898318600
C                     1.674367881871    -0.191819452098    -2.202585567256
C                    -0.138339988254    -0.879808120130     1.135453127887
C                     0.314868975977     0.132690460603     2.018230106797
C                     1.301270870351    -5.232502126521    -1.206283587495
C                    -1.430577957081    -0.461690262015     3.603210919440
C                     3.802133760658   -15.189092331063    -0.567313922138
C                     0.523049640201    -1.113464216668    -0.176731726096
C                     0.838694120089    -0.060996944714    -0.981722676639
C                     1.516168116322     0.974203608237     1.652461040747
C                     0.378875028690     1.335832100743    -0.603935858549
C                     1.240175138835     1.969775826165     0.507045416313
C                     3.399473232368   -13.901891605396    -1.231186677613
C                     2.224652405111    -8.781415071975    -1.424057461950
C                     2.844511904442    -9.853274185691    -0.519220132897
C                     2.085174802272    -7.446680140801    -0.705740674288
C                     2.966671955515   -11.195584198676    -1.236815069926
N                     2.814793931428   -16.063444761153    -0.317700645566
O                     2.604007794414   -12.596534068784     1.035719437665
O                    -2.021181153473    -0.204978009661     4.818529932635
O                     1.515917815501    -6.517894251484    -1.629382283771
S                     3.633951739084   -12.462795895513    -0.069808385577
H                     3.900015912737    -0.513398199310    -5.405027179547
H                     4.642546637743    -1.527236238691    -3.251750344781
H                     1.735520203599     0.717458848526    -5.499784794202
H                     6.485897054014   -16.854860712837     0.698216726871
H                     4.632774041730   -18.497255749974     1.171468558421
H                     3.226287083544    -1.329521710132    -1.232342532935
H                     0.332603159544     0.922976624233    -3.477814907389
H                     1.534999019658    -3.068393923270     1.403395668966
H                     0.063506779307    -2.373004563777    -2.569886887087
H                    -1.561158556394    -2.472301566381     0.873001123166
H                     2.007458170205    -5.409149147220     0.839458299607
H                     0.514375287988    -4.743955025667    -3.144322656046
H                    -2.719994961574    -2.104058189404     3.027720225127
H                     5.907102060779   -14.699143630282    -0.436443873474
H                     0.002276753198     1.097469570887     3.928419081470
H                     2.310312844377   -17.899121113016     0.476316915914
H                     1.878788371590     1.513404408963     2.533055163663
H                     2.322036569684     0.303367722061     1.333870017482
H                     0.393464407346     1.990706261252    -1.479294370936
H                    -0.657043929950     1.289285911423    -0.251727715245
H                     0.716458047418     2.853803721792     0.890498394095
H                     2.198261803145     2.313177645751     0.099586737710
H                     4.013005423293   -13.685241920299    -2.112274866832
H                     2.341416187453   -13.939552105000    -1.498652996245
H                     2.837490130323    -8.635664110346    -2.321257096944
H                     1.233300370145    -9.102960094724    -1.763070084663
H                     2.230005731110    -9.993352828006     0.376601836855
H                     3.835428304852    -9.526033469871    -0.179025846890
H                     3.065645620260    -7.084007364695    -0.366797516668
H                     1.435831903601    -7.548076955619     0.174558061910
H                     1.987337524420   -11.553303981925    -1.571849867546
H                     3.646955030762   -11.141057577801    -2.094447585118
H                    -2.758115596638    -0.823097246234     4.946314010310
