69
0 1 C29H33NO6
C                    -1.713344762705    -0.581475720316     6.168335370384
C                    -0.767904047285     7.506286116759     1.801003078780
C                    -2.571409531010     0.385329757678     5.652718733204
C                    -1.821629067633     6.599357315325     1.994133974883
C                     0.173083049228     0.672044241169     5.295058487682
C                    -0.573524726890     4.899013436541     0.776161016266
C                    -0.326608142675    -0.442049114285     5.988716575138
C                     0.378172392482     7.109234591730     1.120878238103
C                     0.463262209379     5.805665626463     0.602764567127
C                    -0.674322158557     1.650257732053     4.768825708972
C                    -1.717186472835     5.295093217582     1.490682947148
C                    -2.059228508077     1.489152937079     4.960784599265
C                     1.234769207329    -3.253987933574     7.534370927190
C                     2.339532231915    -2.575413804379     7.066412788660
C                     0.606842777136    -1.431004309868     6.509339948412
C                     1.043616095175    -4.501953778058     8.274151920407
C                     3.359147611119     9.579629014027     1.668575344079
C                     1.787017099730     5.608408857359    -0.103561482991
C                     2.653603965382     6.760446256150     0.455435990647
C                     1.650857236915     7.884458070023     0.827018491699
C                     3.784465200357    -2.927598341087     7.180958492973
C                    -0.383043537499    -4.897479706356     8.604456275938
C                     0.852061623274     5.215325076597     4.413622967709
C                    -0.106383479220     2.867836088516     4.079273507494
C                     2.113329977397     8.764211912447     1.988959299110
C                     0.143269819024     4.024737805939     5.066648394714
C                    -4.462258422742     3.251821127525     2.815858720644
C                    -3.696285782316     4.555387219359     2.636231908363
C                    -3.575872989724     2.092985812450     3.246777274942
N                     1.918028295831    -1.426905160316     6.422611137399
O                     2.008284676215    -5.190048842461     8.606760461683
O                     3.829747079486     9.726043299289     0.565311965373
O                     0.114604501193    -2.510282667998     7.172491615268
O                     3.941158324302    10.196746639851     2.742512721913
O                    -2.675627458331     4.329011987395     1.658729832737
O                    -2.929116190664     2.452024728651     4.484425619055
H                    -2.109049108391    -1.434736877199     6.709825873275
H                    -0.860004250408     8.510644719008     2.208729230004
H                    -3.645995452558     0.304211145867     5.791748075319
H                    -2.701557189280     6.913859624412     2.543188023521
H                     1.248163952556     0.763716440471     5.167753357717
H                    -0.515716842177     3.879697174755     0.403186334642
H                     2.224726786259     4.620762470479     0.071530788604
H                     1.650820628436     5.713454158541    -1.188004324942
H                     3.155771743673     6.418097472755     1.369207164543
H                     3.422492361655     7.105833194081    -0.237240981093
H                     1.499445920669     8.531740156841    -0.046363834854
H                     4.230189323367    -2.999761671087     6.183250568740
H                     4.318825098543    -2.136729172341     7.718249662483
H                     3.911062000167    -3.873344148336     7.706776698381
H                    -0.973480741583    -5.006071955378     7.688483349131
H                    -0.867253697730    -4.121212431306     9.206451969745
H                    -0.372029809256    -5.840027854474     9.153113415210
H                     1.826019354611     4.917531151636     4.006827797952
H                     0.262965830501     5.629976532934     3.592736380440
H                     1.024790589446     6.015467747871     5.142581535536
H                     0.841818551677     2.597264118794     3.600296957503
H                    -0.778504419334     3.209887506069     3.288517857843
H                     1.326702920717     9.478424391080     2.266964827489
H                     2.292084853804     8.141937221867     2.875858917748
H                    -0.818156741959     4.342767245180     5.487027987978
H                     0.740931699646     3.650543979397     5.906815860576
H                    -5.247160531052     3.414342307638     3.562974797932
H                    -4.951794830975     2.978311266473     1.874483366812
H                    -4.374095710826     5.350118138178     2.298537995260
H                    -3.237300266735     4.860678691085     3.583042515412
H                    -2.813199144777     1.886315578738     2.487654177327
H                    -4.175423874234     1.185242115154     3.392143773451
H                     3.454592224796     9.974363504888     3.554492695799
