29
0 1 C12H14N2O
C                     1.613010884983    -0.799821931675     0.066094746915
C                     0.254961712975    -0.976414706418    -0.232605140014
C                     2.490214871142    -1.892361396620     0.065476577972
C                    -0.243207173679    -2.248854753474    -0.538564772053
C                     1.991981181447    -3.160833466571    -0.234666533963
C                     0.633970057280    -3.334139405240    -0.534757966451
C                    -0.801632215162    -4.489095719066    -3.058438258401
C                     2.728136860970    -4.483593085716    -0.311181642714
C                     1.578079325795    -5.522776845492    -0.314976473036
C                    -2.166672098587    -3.785474627053    -4.638341144739
C                    -2.937437332965    -3.834891496906    -3.294629134945
C                     0.346039746813    -4.784728553091    -0.889422116442
N                    -0.777579777410    -4.101709335326    -4.280466169689
N                     0.253549878760    -5.006630115625    -2.348508622605
O                    -1.996097836180    -4.455463575686    -2.377708663424
H                     1.986847474573     0.192722022040     0.305059083554
H                    -0.414472208141    -0.119896982397    -0.221884332524
H                     3.542255340508    -1.749470071595     0.303063196452
H                    -1.295350282257    -2.393251132570    -0.769334672583
H                     3.325473572779    -4.537591799406    -1.231188566775
H                     3.421518347498    -4.632699454202     0.522347586088
H                     1.806069400228    -6.431429568692    -0.878060999235
H                     1.356575402893    -5.814914347622     0.715801206205
H                    -2.549766458265    -4.520851230720    -5.357280800437
H                    -2.228488193748    -2.799581928158    -5.110218761282
H                    -3.179454381806    -2.840904789153    -2.904312162521
H                    -3.840716372719    -4.448132412819    -3.312828131898
H                    -0.587567899412    -5.146707636083    -0.457784394440
H                     1.121040346250    -4.845081817230    -2.851118650167
