69
0 1 C29H33NO6
C                    -1.519481390090    -0.450664786038     6.171870766286
C                    -0.886068471744     7.350816566943     1.219797905605
C                    -2.405539802176     0.465251524100     5.616136342206
C                    -1.897754278616     6.427346061619     1.525953851806
C                     0.321135984641     0.752392307460     5.143236275916
C                    -0.660698798191     4.690946402539     0.348079132282
C                    -0.140913980292    -0.311461699169     5.934046780077
C                     0.233938978799     6.946112488560     0.501999060721
C                     0.335142411098     5.614999066296     0.062594641841
C                    -0.556617081084     1.680649802749     4.574492532830
C                    -1.778538495458     5.097889069860     1.096906092409
C                    -1.930968446084     1.519633740209     4.825703278982
C                     2.717298782519    -2.190473521128     6.950231588092
C                     1.710548521531    -2.913685044528     7.553098466341
C                     0.783007542768    -1.276365785235     6.513315614461
C                     4.173503887019    -2.322092725969     6.893635587984
C                     3.138837168038     9.556929338438     0.690542397875
C                     1.623802771556     5.413906577347    -0.705206602188
C                     2.478264970203     6.628473381012    -0.274162982149
C                     1.457476473916     7.741235104349     0.080969378546
C                     1.801666354787    -4.142240102705     8.394139529693
C                     4.931427985493    -1.271424788826     6.104455484101
C                     0.896768392610     5.230680037090     3.899184961638
C                    -0.028894186975     2.849209204162     3.776421955468
C                     1.953397458114     8.717200248268     1.148150973186
C                     0.215324429566     4.088729861915     4.659518255783
C                    -4.432672590569     3.087145587611     2.643731741175
C                    -3.697533100627     4.389309629717     2.358061403697
C                    -3.511924416239     1.975889119433     3.124735764856
N                     0.497464774041    -2.317088148918     7.262890238486
O                     4.744359512852    -3.249760971851     7.466457466995
O                     3.529486749507     9.644463271409    -0.449543877579
O                     2.113785239135    -1.130686421284     6.278827810102
O                     3.761838567098    10.269860610250     1.678619757258
O                    -2.695902020599     4.117276675801     1.372592088905
O                    -2.828333343121     2.434792056910     4.308250418048
H                    -1.872816627935    -1.269622559417     6.790011677957
H                    -0.989854511085     8.375969261771     1.568756159987
H                    -3.473781973782     0.383914589647     5.797700382295
H                    -2.756625544740     6.750321101112     2.102511076327
H                     1.387834371695     0.856447888504     4.964623541799
H                    -0.590186993224     3.652594292375     0.034471381394
H                     2.106127351674     4.454898848351    -0.492052820498
H                     1.423458380430     5.441455897483    -1.784401821287
H                     3.043202801997     6.365087764813     0.629126434769
H                     3.193666107854     6.951313781947    -1.032025865403
H                     1.230705560276     8.319468947486    -0.823979977322
H                     1.347769550142    -3.957146350077     9.373415941799
H                     1.239774556978    -4.957108505726     7.925144801801
H                     2.840057671690    -4.445481854131     8.523677088974
H                     4.742457549413    -0.273303624818     6.513760456700
H                     4.596222279509    -1.257867787283     5.061926562339
H                     5.997991554069    -1.495083981715     6.148734926965
H                     1.872035747584     4.915439753340     3.508759841267
H                     0.292809297890     5.563910493883     3.052384545196
H                     1.062429080570     6.093190454892     4.554859587346
H                     0.915053761868     2.559524523072     3.299715284663
H                    -0.723999875733     3.112236435095     2.975141690777
H                     1.155350333886     9.417495503846     1.428978656548
H                     2.215556251034     8.166429363547     2.061252256359
H                    -0.745525185380     4.426220719139     5.065416597170
H                     0.829530675838     3.795852305456     5.519983244912
H                    -5.199806372799     3.285193026845     3.400629606284
H                    -4.942311292721     2.743138828514     1.736808030425
H                    -4.398749346806     5.147000773799     1.984950649445
H                    -3.222498788561     4.765621736757     3.270757728717
H                    -2.772758035893     1.725555616801     2.355508398828
H                    -4.089862507525     1.072401896073     3.357337126544
H                     3.338431418718    10.087020237063     2.534667518998
