
  -OEChem-05262117483D

 69 72  0     1  0  0  0  0  0999 V2000
   -1.5453   -0.7513    6.6245 C   0  0  0  0  0  0  0  0  0  0  0  0
    0.1752    5.2109    0.4371 C   0  0  0  0  0  0  0  0  0  0  0  0
   -2.4643    0.1161    6.0446 C   0  0  0  0  0  0  0  0  0  0  0  0
   -0.8237    4.2886    0.7503 C   0  0  0  0  0  0  0  0  0  0  0  0
    0.2558    0.5786    5.6864 C   0  0  0  0  0  0  0  0  0  0  0  0
   -2.0837    6.0177    1.9142 C   0  0  0  0  0  0  0  0  0  0  0  0
   -0.1699   -0.5234    6.4451 C   0  0  0  0  0  0  0  0  0  0  0  0
    0.0506    6.5371    0.8584 C   0  0  0  0  0  0  0  0  0  0  0  0
   -1.0765    6.9285    1.5881 C   0  0  0  0  0  0  0  0  0  0  0  0
   -0.6547    1.4577    5.0922 C   0  0  0  0  0  0  0  0  0  0  0  0
   -1.9483    4.6866    1.4926 C   0  0  0  0  0  0  0  0  0  0  0  0
   -2.0254    1.2085    5.2860 C   0  0  0  0  0  0  0  0  0  0  0  0
    2.7580   -2.2353    7.5540 C   0  0  0  0  0  0  0  0  0  0  0  0
    1.7754   -3.0294    8.1053 C   0  0  0  0  0  0  0  0  0  0  0  0
    0.7889   -1.4373    7.0496 C   0  0  0  0  0  0  0  0  0  0  0  0
    4.2206   -2.2737    7.5573 C   0  0  0  0  0  0  0  0  0  0  0  0
    2.7303    8.8820   -0.7639 C   0  0  0  0  0  0  0  0  0  0  0  0
   -0.9666    8.3843    1.9869 C   0  0  0  0  0  0  0  0  0  0  0  0
    0.1318    8.9243    1.0417 C   0  0  0  0  0  0  0  0  0  0  0  0
    1.0178    7.6975    0.7038 C   0  0  2  0  0  0  0  0  0  0  0  0
    1.9101   -4.2633    8.9326 C   0  0  0  0  0  0  0  0  0  0  0  0
    4.9422   -1.1628    6.8182 C   0  0  0  0  0  0  0  0  0  0  0  0
    0.5466    5.1107    4.4771 C   0  0  0  0  0  0  0  0  0  0  0  0
   -0.1717    2.6631    4.3216 C   0  0  0  0  0  0  0  0  0  0  0  0
    1.6895    7.7737   -0.6672 C   0  0  0  0  0  0  0  0  0  0  0  0
   -0.1296    3.9357    5.1903 C   0  0  0  0  0  0  0  0  0  0  0  0
   -4.5659    2.6505    3.0617 C   0  0  0  0  0  0  0  0  0  0  0  0
   -3.8621    3.9643    2.7518 C   0  0  0  0  0  0  0  0  0  0  0  0
   -3.6176    1.5743    3.5688 C   0  0  0  0  0  0  0  0  0  0  0  0
    0.5398   -2.5055    7.7731 N   0  0  0  0  0  0  0  0  0  0  0  0
    4.8251   -3.1745    8.1387 O   0  0  0  0  0  0  0  0  0  0  0  0
    3.1699    9.5057    0.1731 O   0  0  0  0  0  0  0  0  0  0  0  0
    2.1162   -1.2050    6.8723 O   0  0  0  0  0  0  0  0  0  0  0  0
    3.1922    9.1374   -2.0263 O   0  0  0  0  0  0  0  0  0  0  0  0
   -2.8576    3.6984    1.7672 O   0  0  0  0  0  0  0  0  0  0  0  0
   -2.9521    2.0784    4.7436 O   0  0  0  0  0  0  0  0  0  0  0  0
   -1.8713   -1.5990    7.2185 H   0  0  0  0  0  0  0  0  0  0  0  0
    1.0468    4.8776   -0.1223 H   0  0  0  0  0  0  0  0  0  0  0  0
   -3.5313   -0.0342    6.1845 H   0  0  0  0  0  0  0  0  0  0  0  0
   -0.7486    3.2496    0.4432 H   0  0  0  0  0  0  0  0  0  0  0  0
    1.3201    0.7511    5.5523 H   0  0  0  0  0  0  0  0  0  0  0  0
   -2.9442    6.3411    2.4901 H   0  0  0  0  0  0  0  0  0  0  0  0
   -1.9116    8.9298    1.8989 H   0  0  0  0  0  0  0  0  0  0  0  0
   -0.6490    8.4568    3.0358 H   0  0  0  0  0  0  0  0  0  0  0  0
   -0.3373    9.2884    0.1189 H   0  0  0  0  0  0  0  0  0  0  0  0
    0.7095    9.7459    1.4679 H   0  0  0  0  0  0  0  0  0  0  0  0
    1.8104    7.6120    1.4586 H   0  0  0  0  0  0  0  0  0  0  0  0
    1.3843   -4.1323    9.8841 H   0  0  0  0  0  0  0  0  0  0  0  0
    1.4430   -5.1099    8.4177 H   0  0  0  0  0  0  0  0  0  0  0  0
    2.9591   -4.4895    9.1206 H   0  0  0  0  0  0  0  0  0  0  0  0
    4.6677   -0.1857    7.2295 H   0  0  0  0  0  0  0  0  0  0  0  0
    4.6557   -1.1561    5.7612 H   0  0  0  0  0  0  0  0  0  0  0  0
    6.0182   -1.3158    6.9100 H   0  0  0  0  0  0  0  0  0  0  0  0
    1.5918    4.8778    4.2420 H   0  0  0  0  0  0  0  0  0  0  0  0
    0.0421    5.3513    3.5384 H   0  0  0  0  0  0  0  0  0  0  0  0
    0.5395    6.0092    5.1040 H   0  0  0  0  0  0  0  0  0  0  0  0
    0.8349    2.4599    3.9379 H   0  0  0  0  0  0  0  0  0  0  0  0
   -0.8120    2.8449    3.4540 H   0  0  0  0  0  0  0  0  0  0  0  0
    2.2046    6.8309   -0.8953 H   0  0  0  0  0  0  0  0  0  0  0  0
    0.9296    7.9068   -1.4486 H   0  0  0  0  0  0  0  0  0  0  0  0
   -1.1544    4.2019    5.4742 H   0  0  0  0  0  0  0  0  0  0  0  0
    0.4025    3.7125    6.1232 H   0  0  0  0  0  0  0  0  0  0  0  0
   -5.3400    2.8445    3.8126 H   0  0  0  0  0  0  0  0  0  0  0  0
   -5.0639    2.2752    2.1607 H   0  0  0  0  0  0  0  0  0  0  0  0
   -4.5804    4.7008    2.3685 H   0  0  0  0  0  0  0  0  0  0  0  0
   -3.3933    4.3654    3.6569 H   0  0  0  0  0  0  0  0  0  0  0  0
   -2.8680    1.3291    2.8080 H   0  0  0  0  0  0  0  0  0  0  0  0
   -4.1723    0.6606    3.8170 H   0  0  0  0  0  0  0  0  0  0  0  0
    2.7394    8.5623   -2.6664 H   0  0  0  0  0  0  0  0  0  0  0  0
  1  3  1  0  0  0  0
  1  7  2  0  0  0  0
  1 37  1  0  0  0  0
  2  4  2  0  0  0  0
  2  8  1  0  0  0  0
  2 38  1  0  0  0  0
  3 12  2  0  0  0  0
  3 39  1  0  0  0  0
  4 11  1  0  0  0  0
  4 40  1  0  0  0  0
  5  7  1  0  0  0  0
  5 10  2  0  0  0  0
  5 41  1  0  0  0  0
  6  9  1  0  0  0  0
  6 11  2  0  0  0  0
  6 42  1  0  0  0  0
  7 15  1  0  0  0  0
  8  9  2  0  0  0  0
  8 20  1  0  0  0  0
  9 18  1  0  0  0  0
 10 12  1  0  0  0  0
 10 24  1  0  0  0  0
 11 35  1  0  0  0  0
 12 36  1  0  0  0  0
 13 14  2  0  0  0  0
 13 16  1  0  0  0  0
 13 33  1  0  0  0  0
 14 21  1  0  0  0  0
 14 30  1  0  0  0  0
 15 30  2  0  0  0  0
 15 33  1  0  0  0  0
 16 22  1  0  0  0  0
 16 31  2  0  0  0  0
 17 25  1  0  0  0  0
 17 32  2  0  0  0  0
 17 34  1  0  0  0  0
 18 19  1  0  0  0  0
 18 43  1  0  0  0  0
 18 44  1  0  0  0  0
 19 20  1  0  0  0  0
 19 45  1  0  0  0  0
 19 46  1  0  0  0  0
 20 25  1  0  0  0  0
 20 47  1  0  0  0  0
 21 48  1  0  0  0  0
 21 49  1  0  0  0  0
 21 50  1  0  0  0  0
 22 51  1  0  0  0  0
 22 52  1  0  0  0  0
 22 53  1  0  0  0  0
 23 26  1  0  0  0  0
 23 54  1  0  0  0  0
 23 55  1  0  0  0  0
 23 56  1  0  0  0  0
 24 26  1  0  0  0  0
 24 57  1  0  0  0  0
 24 58  1  0  0  0  0
 25 59  1  0  0  0  0
 25 60  1  0  0  0  0
 26 61  1  0  0  0  0
 26 62  1  0  0  0  0
 27 28  1  0  0  0  0
 27 29  1  0  0  0  0
 27 63  1  0  0  0  0
 27 64  1  0  0  0  0
 28 35  1  0  0  0  0
 28 65  1  0  0  0  0
 28 66  1  0  0  0  0
 29 36  1  0  0  0  0
 29 67  1  0  0  0  0
 29 68  1  0  0  0  0
 34 69  1  0  0  0  0
M  END
$$$$
