30
1 1 C12H15N2O
C                     1.857432472734    -1.062911049882    -0.052070227889
C                     0.485762512162    -1.080890528253    -0.340455673091
C                     2.632963122524    -2.220805768340    -0.184838313497
C                    -0.126195508856    -2.261199134856    -0.776233799300
C                     2.022871779409    -3.399260852386    -0.615441049543
C                     0.653220449974    -3.411487491839    -0.914103936401
C                    -0.859298624348    -4.470473057546    -3.622678153080
C                     2.636010003192    -4.767874306557    -0.824208095034
C                     1.396969737803    -5.692979800125    -0.912628447459
C                    -2.899171571051    -3.634788521715    -4.314488184379
C                    -2.080057954984    -4.153649105157    -5.510042434047
C                     0.244288700770    -4.787512506770    -1.401385806294
N                    -2.083527722329    -4.140220783636    -3.195345917408
N                     0.172958311576    -4.835305622811    -2.895298734717
O                    -0.749997119110    -4.432574602825    -4.942124006323
H                     2.319527671735    -0.142006794733     0.292113625654
H                    -0.104887902712    -0.178654533825    -0.211374412736
H                     3.692413263488    -2.200126025666     0.057051410015
H                    -1.197152560640    -2.266050689733    -0.972007549271
H                     3.232224621184    -4.791283979210    -1.745629303400
H                     3.305952267812    -5.060837494472    -0.011945154219
H                     1.536265054968    -6.574891113912    -1.543949814047
H                     1.134981578074    -6.045842059379     0.087813301496
H                    -2.957793774823    -2.543170137332    -4.284556471398
H                    -3.904069087372    -4.057918153691    -4.286242387657
H                    -2.457996223593    -5.095342801416    -5.910325205084
H                    -1.940994512690    -3.426404716943    -6.307253251903
H                    -0.725986835615    -5.132013379796    -1.031903472006
H                    -2.291218172660    -3.944639045615    -2.224611325084
H                     1.028775209174    -5.019248118667    -3.411628205351
