26   
torsion grid (-90,)
C       -1.6949699474   -6.9997248869    0.0823333489
C       -1.0062037764   -6.4819705811   -1.0234814386
C       -2.0373668949   -6.1468661861    1.1321333296
C       -0.6682162754   -5.1315178546   -1.0775115050
C       -1.7038075315   -4.7862349197    1.0931468663
C       -1.0183514446   -4.2805806068   -0.0184624099
C        0.9377740342    1.4024980103   -0.7868545157
C        0.7070659926    0.1399728885   -1.1630141515
C       -0.5476220059   -0.6872966667    0.4487483540
C        0.1372154541    1.5503355921    0.5535515892
C       -1.0107822214   -2.0466836602    0.8675911924
N       -0.0998864611    0.2140824535    1.2601626201
N       -0.6908721677   -0.1864192060   -0.8797003995
O       -0.6422293156   -2.9655347555   -0.1635021071
H       -1.9572882059   -8.0530134687    0.1224081655
H       -0.7306646996   -7.1341904205   -1.8481479382
H       -2.5688032133   -6.5347779235    1.9973032244
H       -0.1327547596   -4.7165090141   -1.9266894065
H       -1.9763965688   -4.1474781851    1.9255017600
H        1.8810176353    1.9240065477   -0.9333033011
H        1.2213935526   -0.4634414100   -1.9079417895
H        0.6774535775    2.1960209239    1.2477929511
H       -0.8574242270    1.9816812637    0.3759868253
H       -2.1032196446   -2.0421461073    0.9900081354
H       -0.5452760392   -2.2991241458    1.8250037278
H       -0.9619663680   -0.9550612942   -1.4984707122
26   
torsion grid (-75,)
C       -1.7158739615   -6.9862690026    0.1044449540
C       -1.0332966722   -6.4817361744   -1.0112649845
C       -2.0384128206   -6.1238927185    1.1527742059
C       -0.6821859928   -5.1351307843   -1.0767284276
C       -1.6914104945   -4.7670175618    1.1024003396
C       -1.0126720145   -4.2744417694   -0.0192133919
C        0.9284448725    1.4205557210   -0.7087060477
C        0.6959351696    0.2225155060   -1.2594573397
C       -0.5249389030   -0.6703883187    0.4161647182
C        0.0931936820    1.5579811235    0.5749839480
C       -0.9851808071   -2.0319126467    0.8462086730
N       -0.1318103268    0.2280121049    1.2450831197
N       -0.6325784691   -0.2593953984   -0.9463314119
O       -0.6243531519   -2.9643407422   -0.1752418873
H       -1.9886081383   -8.0365460970    0.1532309168
H       -0.7730138169   -7.1413917436   -1.8349775592
H       -2.5646143731   -6.5013925503    2.0257252404
H       -0.1511531674   -4.7307587661   -1.9338193019
H       -1.9481839418   -4.1207258321    1.9339208171
H        1.8575282765    1.9674994720   -0.8435880300
H        1.2258104372   -0.2506499570   -2.0813168275
H        0.5711990777    2.2269769672    1.2923407209
H       -0.9022733277    1.9623558323    0.3356474934
H       -2.0763724369   -2.0274402348    0.9772284489
H       -0.5135682320   -2.2740256895    1.8031181231
H       -0.8451583755   -1.0725973376   -1.5254006151
26   
torsion grid (-60,)
C       -1.7330306050   -6.9883284925    0.1238162162
C       -1.0322370789   -6.5007661567   -0.9881146373
C       -2.0616667184   -6.1129317886    1.1594146865
C       -0.6693430406   -5.1577344297   -1.0624197415
C       -1.7030524208   -4.7594638585    1.0999858367
C       -1.0062030035   -4.2837182409   -0.0178329092
C        0.9187021804    1.4326835281   -0.6523105317
C        0.6527495711    0.3163425632   -1.3420717498
C       -0.5009134685   -0.6712804348    0.3924339317
C        0.1051056073    1.5458879200    0.6290404665
C       -0.9739973254   -2.0317870750    0.8241942208
N       -0.1279872970    0.2082625686    1.2439423694
N       -0.5780513427   -0.3257318409   -0.9833660884
O       -0.6051666430   -2.9785271695   -0.1815864940
H       -2.0149980638   -8.0358232855    0.1795972616
H       -0.7669110625   -7.1708117531   -1.8017865593
H       -2.6018698107   -6.4774361307    2.0293418319
H       -0.1238609038   -4.7665090846   -1.9165572349
H       -1.9648227525   -4.1026838632    1.9216396007
H        1.8236539896    2.0110535514   -0.8105041306
H        1.1668120715   -0.0393915476   -2.2293899286
H        0.5959790734    2.1870825465    1.3636602183
H       -0.8832936398    1.9802910582    0.4093345363
H       -2.0667123935   -2.0212363833    0.9400461191
H       -0.5169072937   -2.2661369628    1.7897415044
H       -0.7419755029   -1.1589761262   -1.5451916328
26   
torsion grid (-45,)
C       -1.7552007173   -6.9945134977    0.1446709282
C       -1.0306068061   -6.5265592220   -0.9603648198
C       -2.0911930620   -6.1043428831    1.1652536910
C       -0.6518033163   -5.1883460425   -1.0424367131
C       -1.7167829826   -4.7555694640    1.0977744456
C       -0.9962170215   -4.2992770078   -0.0130828538
C        0.8962944204    1.4626943200   -0.6195279237
C        0.6120712374    0.4129085101   -1.4001003747
C       -0.4719499912   -0.6791379709    0.3662861397
C        0.1299897727    1.5390591256    0.6854074189
C       -0.9598755455   -2.0370139082    0.8022476111
N       -0.1332326650    0.1914681380    1.2387930395
N       -0.4915457244   -0.3994418162   -1.0162591371
O       -0.5775010423   -3.0005568947   -0.1827631249
H       -2.0497130124   -8.0381998478    0.2067787098
H       -0.7591901138   -7.2080526574   -1.7624507900
H       -2.6497476033   -6.4535982359    2.0298373726
H       -0.0877638514   -4.8124996220   -1.8914313088
H       -1.9846435257   -4.0871336862    1.9079664966
H        1.7441143077    2.1087944940   -0.8223099468
H        1.0991307629    0.1708445308   -2.3391229145
H        0.6727950588    2.1219722054    1.4336035659
H       -0.8420019972    2.0350733466    0.5309202529
H       -2.0543219446   -2.0197307801    0.8966631471
H       -0.5223498818   -2.2610300802    1.7789869751
H       -0.5830477398   -1.2486227757   -1.5669661255
26   
torsion grid (-30,)
C       -1.7741326103   -6.9960647429    0.1605928689
C       -1.0084976042   -6.5496628175   -0.9254806895
C       -2.1355528943   -6.0891754477    1.1575642261
C       -0.6146102841   -5.2160856092   -1.0118918945
C       -1.7466740917   -4.7447739981    1.0859694267
C       -0.9851259713   -4.3104750137   -0.0062150491
C        0.8447499693    1.5110539903   -0.6237764616
C        0.5426837157    0.5046588884   -1.4531915535
C       -0.4477391269   -0.6851233985    0.3395921647
C        0.1763296052    1.5372992893    0.7330527037
C       -0.9565658229   -2.0371609074    0.7794296472
N       -0.1439142353    0.1846793185    1.2255165591
N       -0.4020154434   -0.4648343987   -1.0427089648
O       -0.5484645669   -3.0183021931   -0.1779469250
H       -2.0805588352   -8.0360909686    0.2264211222
H       -0.7167760166   -7.2441788273   -1.7090668025
H       -2.7260217178   -6.4220153562    2.0072846474
H       -0.0188034932   -4.8566776439   -1.8462112954
H       -2.0349189949   -4.0630564840    1.8779071979
H        1.5943745674    2.2481011626   -0.8929458237
H        0.9680976512    0.3718803259   -2.4426459966
H        0.8141335254    2.0286473012    1.4745029294
H       -0.7592107320    2.1189936000    0.6962827806
H       -2.0531876280   -2.0121259885    0.8377633469
H       -0.5510974884   -2.2490716091    1.7723147818
H       -0.4196728618   -1.3226745904   -1.5841957692
26   
torsion grid (-15,)
C       -1.8067279041   -7.0206446329    0.1714902469
C       -0.9884341882   -6.5973594299   -0.8850663282
C       -2.2019263418   -6.0980866848    1.1409203819
C       -0.5752857804   -5.2695523770   -0.9699934455
C       -1.7938432067   -4.7594183055    1.0697564909
C       -0.9795328157   -4.3473599191    0.0073369248
C        0.7609780438    1.5486005297   -0.6270538564
C        0.4685065969    0.5574626340   -1.4782852078
C       -0.4176459396   -0.7223613960    0.3290918060
C        0.2361760985    1.5018442140    0.7911273110
C       -0.9589884626   -2.0648977251    0.7664749998
N       -0.1712735707    0.1559167247    1.2246670483
N       -0.2824750968   -0.5513364896   -1.0451931431
O       -0.5203671271   -3.0628137620   -0.1596685091
H       -2.1280310513   -8.0562386079    0.2360370188
H       -0.6706114459   -7.3051586806   -1.6463251492
H       -2.8334445189   -6.4136162352    1.9674489652
H        0.0612071787   -4.9274821221   -1.7812577020
H       -2.1086513642   -4.0642298937    1.8395482145
H        1.3606130092    2.3913536805   -0.9575053326
H        0.8011277009    0.5293230649   -2.5109572140
H        0.9935463277    1.8666259465    1.4958530847
H       -0.6266068940    2.1770307090    0.9102576762
H       -2.0565291200   -2.0267612300    0.7771180094
H       -0.5979212048   -2.2688358958    1.7778823206
H       -0.2401612124   -1.4058946857   -1.5868398831
26   
torsion grid (0,)
C       -1.8298154438   -6.9996175855    0.1665043133
C       -0.9664013840   -6.6038626249   -0.8644943142
C       -2.2440982522   -6.0562090749    1.1074809856
C       -0.5277558282   -5.2844194462   -0.9524075604
C       -1.8112695335   -4.7254875190    1.0332689528
C       -0.9516120892   -4.3413749630   -0.0036265169
C        0.6271027482    1.6459775424   -0.7012286966
C        0.4467413093    0.6128132460   -1.5338107104
C       -0.3343791582   -0.7214091521    0.2940394006
C        0.2881062216    1.5231103325    0.7700197425
C       -0.9168302057   -2.0504523258    0.7272824001
N       -0.2121320838    0.1988868718    1.1735562928
N       -0.0431301027   -0.6086465947   -1.0531735893
O       -0.4654710963   -3.0672081900   -0.1710470952
H       -2.1707377477   -8.0287986470    0.2332796450
H       -0.6328547076   -7.3273551357   -1.6039538333
H       -2.9108111539   -6.3492223170    1.9144198557
H        0.1437625761   -4.9648719536   -1.7444072290
H       -2.1431127114   -4.0143003949    1.7809683166
H        0.9943174089    2.5922893442   -1.0880407473
H        0.6641346116    0.6516016232   -2.5963502127
H        1.1673129545    1.7528641453    1.3899209845
H       -0.4658718366    2.2726539977    1.0539716447
H       -2.0125996607   -1.9884096293    0.6993688896
H       -0.5971734057   -2.2534946910    1.7528279548
H       -0.0188368764   -1.4506878637   -1.6104516296
26   
torsion grid (15,)
C       -1.8333171138   -6.9772086146    0.1787607346
C       -1.3446991288   -6.4909922425   -1.0418702358
C       -1.9685084636   -6.1005582428    1.2559040004
C       -0.9946525411   -5.1495409806   -1.1798042829
C       -1.6216840600   -4.7483993369    1.1329040936
C       -1.1308526969   -4.2754521610   -0.0905862632
C        0.6725263973    1.5934561659   -0.7959392526
C        1.0773535969    0.4190329075   -1.2949190701
C       -0.2659116245   -0.7193183527    0.3140601785
C       -0.1043032310    1.6321513701    0.5014314533
C       -0.8116972150   -2.0529625047    0.7724685808
N       -0.7220433026    0.3443923834    0.8569197100
N        0.7412039744   -0.7830798684   -0.6443602950
O       -0.7629495306   -2.9717800630   -0.3227145132
H       -2.1055054613   -8.0234799404    0.2842278564
H       -1.2359195894   -7.1607586920   -1.8910222528
H       -2.3494466410   -6.4624564014    2.2074393729
H       -0.6174361691   -4.7587166779   -2.1206757448
H       -1.7434829154   -4.0871987023    1.9831696791
H        0.9149811901    2.5173340421   -1.3123505424
H        1.6473212683    0.3165340456   -2.2127841580
H        0.5448784545    1.9435581703    1.3356980612
H       -0.9009741213    2.3846795737    0.4530562755
H       -1.8351475149   -1.9030626395    1.1259277482
H       -0.1966254120   -2.4309357692    1.6001116208
H        0.7800477535   -1.6457828228   -1.1733822457
26   
torsion grid (30,)
C       -1.8401687178   -6.9969821429    0.1585927550
C       -1.2891148664   -6.5143859548   -1.0365807634
C       -2.0269941366   -6.1176158720    1.2257435435
C       -0.9290192627   -5.1739833286   -1.1579678540
C       -1.6707448635   -4.7664947907    1.1189992211
C       -1.1175333893   -4.2970765726   -0.0789366230
C        0.5673795140    1.5523944062   -0.8472944968
C        0.9544200193    0.3675086428   -1.3350563188
C       -0.2727873163   -0.7412579865    0.3606375891
C       -0.0496255468    1.5837052629    0.5337792132
C       -0.8371046975   -2.0731280619    0.7938157541
N       -0.7572791868    0.3312114340    0.8597808713
N        0.8021250515   -0.7882275545   -0.5348258400
O       -0.7338572538   -2.9947198632   -0.2950165726
H       -2.1203756393   -8.0422717433    0.2520876483
H       -1.1393029037   -7.1857433756   -1.8781899136
H       -2.4565127545   -6.4768576231    2.1573659773
H       -0.5036092524   -4.7856808302   -2.0790868328
H       -1.8336494022   -4.1039034216    1.9612424122
H        0.6331256279    2.4517815547   -1.4509254475
H        1.3928332471    0.2180432874   -2.3164323197
H        0.7220284571    1.7511059184    1.3028330712
H       -0.7601119994    2.4110701650    0.6266812140
H       -1.8763388058   -1.9219005761    1.0976835597
H       -0.2639545359   -2.4495542653    1.6519259356
H        0.8846517112   -1.6770892374   -1.0166764892
26   
torsion grid (45,)
C       -1.8373195448   -6.9681687663    0.1329643013
C       -1.2430724644   -6.4850226762   -1.0411652773
C       -2.0595763203   -6.0900603965    1.1942748738
C       -0.8750305332   -5.1456334334   -1.1490705326
C       -1.6958651503   -4.7398825889    1.1011006807
C       -1.0996139852   -4.2701744164   -0.0758823853
C        0.5261187149    1.5466195389   -0.8955076188
C        0.8535641052    0.3377126296   -1.3682414192
C       -0.2705588610   -0.7184398994    0.3949637130
C        0.0175140557    1.5799262118    0.5314542862
C       -0.8465837943   -2.0483282323    0.8091076705
N       -0.7653072502    0.3661966855    0.8561576253
N        0.8679464464   -0.7390280376   -0.4378166073
O       -0.7045622214   -2.9684209469   -0.2763007740
H       -2.1233087242   -8.0128719138    0.2147755643
H       -1.0654355804   -7.1558866295   -1.8777130730
H       -2.5226032207   -6.4491967937    2.1097490366
H       -0.4162527014   -4.7573186610   -2.0540223012
H       -1.8864987170   -4.0779493291    1.9380398784
H        0.4558668647    2.4116501262   -1.5467734020
H        1.1828899225    0.1201159646   -2.3790782470
H        0.8613599884    1.6351208547    1.2382308673
H       -0.6099562072    2.4563894581    0.7112672400
H       -1.8957577851   -1.8985078291    1.0782245629
H       -0.3031850967   -2.4253233836    1.6863850130
H        0.9965581893   -1.6494321822   -0.8707176190
26   
torsion grid (60,)
C       -1.8313868857   -6.9575886171    0.1042620728
C       -1.2102706452   -6.4677436722   -1.0530986886
C       -2.0758840641   -6.0867587083    1.1666540360
C       -0.8376997565   -5.1283490238   -1.1433862246
C       -1.7080653622   -4.7365643159    1.0913299204
C       -1.0850219772   -4.2604595841   -0.0690781747
C        0.5245853090    1.5229339794   -0.9382506400
C        0.7479317429    0.2782730957   -1.3784429508
C       -0.2719706077   -0.7164245686    0.4342372551
C        0.0758340953    1.5664974302    0.5155597271
C       -0.8544356517   -2.0440603446    0.8337936325
N       -0.7652643438    0.3851454865    0.8595304416
N        0.9179521425   -0.6976867080   -0.3417774689
O       -0.6823348451   -2.9583175975   -0.2517590638
H       -2.1209108610   -8.0022919189    0.1723733443
H       -1.0152196799   -7.1331732053   -1.8901002469
H       -2.5597280895   -6.4516255771    2.0689914523
H       -0.3580707028   -4.7342291207   -2.0349022224
H       -1.9160614197   -4.0802487586    1.9285999890
H        0.3627909737    2.3570910403   -1.6138880675
H        0.9784372083   -0.0217082384   -2.3958153650
H        0.9540338540    1.5461749085    1.1805803212
H       -0.4894677957    2.4739142304    0.7365060554
H       -1.9104220202   -1.8984481925    1.0784141911
H       -0.3312794908   -2.4222607083    1.7230629555
H        1.1000560273   -1.6227954519   -0.7262808433
26   
torsion grid (75,)
C       -1.8254267208   -6.9513960248    0.0772335072
C       -1.1855521224   -6.4541206913   -1.0666375255
C       -2.0874097979   -6.0890769447    1.1424617493
C       -0.8121888941   -5.1139146175   -1.1392331891
C       -1.7186629947   -4.7383314926    1.0837033353
C       -1.0768967538   -4.2537788005   -0.0628352766
C        0.5553025839    1.5030669534   -0.9857603558
C        0.6274147857    0.2230578809   -1.3723591671
C       -0.2757850851   -0.7193047112    0.4697558899
C        0.1266178348    1.5643010701    0.4898185575
C       -0.8641270934   -2.0435236568    0.8582678946
N       -0.7557439934    0.4033323374    0.8678594012
N        0.9470617192   -0.6504400112   -0.2632393886
O       -0.6708538669   -2.9503847137   -0.2295143016
H       -2.1161042150   -7.9964751466    0.1328993823
H       -0.9767577080   -7.1131782352   -1.9054091196
H       -2.5858326560   -6.4610488207    2.0338958867
H       -0.3177660291   -4.7127238491   -2.0193743579
H       -1.9403018347   -4.0885556116    1.9226073816
H        0.3498159512    2.3208237570   -1.6709786534
H        0.7565286218   -0.1663497161   -2.3783350211
H        1.0120212992    1.5120154681    1.1418477387
H       -0.4085007891    2.4887901721    0.7126533763
H       -1.9246203436   -1.9012096199    1.0858745284
H       -0.3548126432   -2.4239780872    1.7547902891
H        1.1787752524   -1.5793157605   -0.6172592833
26   
torsion grid (90,)
C       -1.8269385699   -6.9538164712    0.0494375530
C       -1.1801525493   -6.4443061538   -1.0851211517
C       -2.0912172315   -6.1013660737    1.1219279061
C       -0.8032767728   -5.1042524774   -1.1415251829
C       -1.7195061877   -4.7507116314    1.0807120625
C       -1.0713118952   -4.2550778256   -0.0573901973
C        0.6148149850    1.4860052028   -1.0408756348
C        0.5132596042    0.1858965323   -1.3371673804
C       -0.2805606363   -0.7311378132    0.5031167662
C        0.1516359235    1.5710232676    0.4549102649
C       -0.8666607226   -2.0539128050    0.8854839156
N       -0.7603637867    0.4131892289    0.8663712337
N        0.9622678293   -0.5949261066   -0.1836836237
O       -0.6612939040   -2.9508113876   -0.2082188897
H       -2.1204283381   -7.9987542005    0.0923009608
H       -0.9685378462   -7.0943531670   -1.9301318246
H       -2.5946368745   -6.4817153067    2.0069506082
H       -0.3032091610   -4.6948445726   -2.0146602687
H       -1.9435202326   -4.1102554278    1.9261636737
H        0.3993309921    2.2928787926   -1.7377630386
H        0.5231010743   -0.3049620849   -2.3079337989
H        1.0109223314    1.5400846398    1.1385683621
H       -0.3981912004    2.4975887405    0.6279047236
H       -1.9294162652   -1.9180084729    1.1074091821
H       -0.3597197661   -2.4365447930    1.7825800319
H        1.2568827695   -1.5134828122   -0.5251162769
