28   
torsion grid (-165,)
C        0.9537878840   -0.4738283211   -0.4802215631
C       -1.0743265703    0.1526298945    0.3542078870
C        2.8414793408    0.6463287104   -1.7373045462
C       -0.5902738818   -1.6446000294    3.3218081305
C       -1.2530807194    0.5758487407   -4.2935757265
C        2.1383775434   -0.6753952502   -1.3734427308
C       -0.4325350057   -0.2318934945    2.7566860377
C       -0.3517325734   -0.0103638330   -3.2200146328
N        1.0437051713   -0.6067841712    0.8153995661
N       -0.3565400554   -0.1412709785   -0.8345508883
N       -0.1839161284   -0.2330657258    1.3264732934
O       -2.2052075377    0.6046923261    0.4599922094
O       -0.8323384119    0.5202377532   -1.9711545937
H        2.1689790327    1.3459430322   -2.2425975415
H        3.6933936684    0.4551308520   -2.3974819523
H        3.2104931899    1.1375008482   -0.8325571223
H        0.3112552262   -2.2358481666    3.1375925267
H       -0.7611367635   -1.6007019156    4.4025594455
H       -1.4411468655   -2.1525289364    2.8577958703
H       -2.2891984476    0.2627940128   -4.1424046217
H       -1.2131838400    1.6687030717   -4.2754510779
H       -0.9196992733    0.2342406479   -5.2786556802
H        2.8311330043   -1.3066177479   -0.8102328556
H        1.8608100080   -1.2311991412   -2.2721636839
H       -1.3427356021    0.3543461061    2.9022917663
H        0.3959047085    0.2928460110    3.2432276245
H        0.6871146970    0.2877480287   -3.3852997544
H       -0.4140243020   -1.1054567287   -3.1989857735
28   
torsion grid (-150,)
C        1.0222641795   -0.4629315812   -0.4376798680
C       -1.0263623682    0.1516129695    0.3506020218
C        2.7747428048    0.7190229722   -1.8207261281
C       -0.6224534411   -1.6895250497    3.3097515255
C       -1.2234360760    0.6118289730   -4.2545584690
C        2.2091694659   -0.6275977410   -1.3305502300
C       -0.4462808077   -0.2718626087    2.7629390905
C       -0.4151373066   -0.1125397713   -3.1920913550
N        1.0819699494   -0.6183107348    0.8547809456
N       -0.2796559060   -0.1306923021   -0.8256508256
N       -0.1645848594   -0.2594226182    1.3389160164
O       -2.1561625942    0.6091300334    0.4350553063
O       -0.6416055566    0.6017489282   -1.9570994326
H        2.0283985592    1.3010902025   -2.3686391327
H        3.6330254339    0.5531520876   -2.4792787888
H        3.1061801539    1.3218284377   -0.9702876514
H        0.2808284641   -2.2825227488    3.1401517386
H       -0.8177095856   -1.6560551923    4.3867361682
H       -1.4643801480   -2.1893898496    2.8212814093
H       -2.2879613108    0.5948040927   -4.0075639479
H       -0.9024822208    1.6540652310   -4.3411320652
H       -1.0765149303    0.1249229187   -5.2238789041
H        2.9645413775   -1.1491494635   -0.7365652192
H        1.9644091619   -1.2762181987   -2.1771731466
H       -1.3570051006    0.3170130373    2.8941720267
H        0.3731183648    0.2441425006    3.2735887914
H        0.6495133928   -0.1033863111   -3.4435222560
H       -0.7444031905   -1.1506355472   -3.0678756936
28   
torsion grid (-135,)
C        1.0743817421   -0.4115363435   -0.3982728475
C       -1.0069152568    0.1362213840    0.3589911358
C        2.7246431080    0.7773888592   -1.9092611046
C       -0.6159910047   -1.7410805079    3.2906216967
C       -1.1409852071    0.6448123207   -4.2412888506
C        2.2614494468   -0.5561386998   -1.2938083789
C       -0.4595043945   -0.3092989586    2.7754924402
C       -0.5655023020   -0.2087541843   -3.1260370965
N        1.1160907084   -0.5817170483    0.8928464433
N       -0.2236563210   -0.0956274810   -0.8016339003
N       -0.1502329974   -0.2616862083    1.3579591871
O       -2.1546775031    0.5512196548    0.4259568337
O       -0.5457831712    0.6267500410   -1.9446299877
H        1.9410729585    1.2375494086   -2.5164639095
H        3.6024100940    0.6147296642   -2.5423027054
H        2.9970939612    1.4869002783   -1.1223338846
H        0.3029430229   -2.3113951175    3.1273955289
H       -0.8329914049   -1.7335304252    4.3639351356
H       -1.4374121586   -2.2485119626    2.7757118553
H       -2.1531186487    0.9731533400   -3.9910055247
H       -0.5201988443    1.5286953313   -4.4153602699
H       -1.1787332845    0.0626177591   -5.1673248315
H        3.0574171905   -0.9793243450   -0.6752528623
H        2.0492909192   -1.2855723946   -2.0832291910
H       -1.3850381889    0.2574688287    2.9005989181
H        0.3386958617    0.2133197429    3.3121912250
H        0.4508311327   -0.5376803622   -3.3670596765
H       -1.1849641193   -1.0893172324   -2.9232638646
28   
torsion grid (-120,)
C        1.1249653093   -0.3607314666   -0.3895601903
C       -0.9718766466    0.1682022299    0.3447538427
C        2.7811625319    0.8520125588   -1.8730752088
C       -0.6249166973   -1.7822698701    3.2257036789
C       -1.1444922878    0.5707850638   -4.2435898705
C        2.3102659153   -0.4926031779   -1.2885789165
C       -0.4637928197   -0.3345907535    2.7585185267
C       -0.7230067835   -0.2714114652   -3.0543839341
N        1.1486231400   -0.5537658404    0.8995506085
N       -0.1587002653   -0.0187097968   -0.7981064568
N       -0.1265915729   -0.2415820138    1.3495730631
O       -2.1291931457    0.5614905404    0.3958703449
O       -0.4596724041    0.6537700624   -1.9689215879
H        1.9971995569    1.3235619214   -2.4706637448
H        3.6583298375    0.6988954382   -2.5094539204
H        3.0571879470    1.5431541857   -1.0710771169
H        0.2992710529   -2.3440852335    3.0627884494
H       -0.8629063100   -1.8090043110    4.2942594044
H       -1.4342658641   -2.2760195405    2.6792867320
H       -2.0432919224    1.1464109663   -4.0070272758
H       -0.3498112384    1.2651898119   -4.5321466611
H       -1.3603782883   -0.0799226800   -5.0966523335
H        3.1040462264   -0.9427791488   -0.6864861609
H        2.0848989597   -1.1948714214   -2.0991691814
H       -1.3938155342    0.2249538119    2.8831226222
H        0.3218553929    0.1734466744    3.3266374443
H        0.1846138708   -0.8458349108   -3.2716314862
H       -1.5137268174   -0.9609338307   -2.7405339488
28   
torsion grid (-105,)
C        1.1837307574   -0.3127116497   -0.4017469838
C       -0.9210502236    0.2219331364    0.3075451471
C        2.8987254229    0.9406744893   -1.7684385910
C       -0.6329402345   -1.8034592110    3.1325989809
C       -1.1653914725    0.4586869442   -4.2547087329
C        2.3689246215   -0.4283244212   -1.3018641649
C       -0.4607089614   -0.3412897810    2.7172689515
C       -0.8653541443   -0.3033901861   -2.9783850587
N        1.1880038106   -0.5233020620    0.8857533294
N       -0.0811699370    0.0683691729   -0.8155509761
N       -0.0914466921   -0.2023353071    1.3201740597
O       -2.0846515815    0.6025201487    0.3397231114
O       -0.3665102050    0.6700486943   -2.0221730202
H        2.1341904087    1.4905159973   -2.3230794452
H        3.7693067377    0.8069807995   -2.4182418119
H        3.2022212445    1.5470681772   -0.9098961278
H        0.2943425171   -2.3605841983    2.9714657418
H       -0.8945879582   -1.8652987459    4.1941378590
H       -1.4303868915   -2.2777585026    2.5524170124
H       -1.9176290116    1.2310695702   -4.0731216837
H       -0.2620771075    0.9344770228   -4.6481443983
H       -1.5507321627   -0.2308745131   -5.0120581305
H        3.1393645583   -0.9643528858   -0.7413673764
H        2.1113646652   -1.0432353070   -2.1716756871
H       -1.3933060129    0.2146409826    2.8388892629
H        0.3116872326    0.1470824136    3.3196603424
H       -0.1016798245   -1.0742082054   -3.1350995817
H       -1.7633210293   -0.7700951608   -2.5609012959
28   
torsion grid (-90,)
C        1.2361798303   -0.2776854826   -0.3971801424
C       -0.8858020018    0.2349442685    0.2767419838
C        2.9882553375    0.9848938239   -1.7033823501
C       -0.6591939950   -1.8516479627    3.0484035439
C       -1.2753951796    0.3447114535   -4.2103542774
C        2.4278953415   -0.3881869105   -1.2882969210
C       -0.4777343009   -0.3773262155    2.6828860368
C       -0.9905950275   -0.3266016982   -2.8811926799
N        1.2161634046   -0.5076987756    0.8880905457
N       -0.0114114640    0.1330047585   -0.8207987602
N       -0.0731662770   -0.1950631589    1.3004350406
O       -2.0608678157    0.5858624801    0.2828603579
O       -0.2958934725    0.6550734815   -2.0604049883
H        2.2385447969    1.5661174549   -2.2465648517
H        3.8612575196    0.8569036449   -2.3511261684
H        3.2957337200    1.5565112407   -0.8227179577
H        0.2722619450   -2.4034467023    2.8932502906
H       -0.9472833060   -1.9463672437    4.1006351567
H       -1.4417302735   -2.3075412177    2.4341508935
H       -1.9048545339    1.2272792130   -4.0678532410
H       -0.3472240450    0.6506966812   -4.7023561623
H       -1.8016215671   -0.3535893377   -4.8684877853
H        3.1820796664   -0.9612327205   -0.7426442734
H        2.1600741385   -0.9637856981   -2.1817596545
H       -1.4136730689    0.1742861160    2.7985254231
H        0.2792076247    0.0923039524    3.3185732813
H       -0.3462971036   -1.2065836571   -2.9956672960
H       -1.9104473899   -0.6164271838   -2.3646360400
28   
torsion grid (-75,)
C        1.2975262844   -0.2261905147   -0.3954416322
C       -0.8419826639    0.2580031974    0.2395418280
C        3.0562191484    1.0350101918   -1.6954457116
C       -0.6907914240   -1.8946973593    2.9348177423
C       -1.3456487141    0.2461234281   -4.1698265013
C        2.5006817640   -0.3366448930   -1.2704018744
C       -0.4886154200   -0.4074112428    2.6388971726
C       -1.0772800938   -0.3238636476   -2.7909407611
N        1.2531963096   -0.4708769953    0.8874572340
N        0.0656471292    0.2114659970   -0.8314521420
N       -0.0451558287   -0.1681895389    1.2769555846
O       -2.0279066140    0.5756117226    0.2203759168
O       -0.2193645578    0.6364866021   -2.1070870468
H        2.3106481117    1.6021714992   -2.2589010081
H        3.9400094487    0.9053424446   -2.3279861149
H        3.3454188947    1.6217657161   -0.8184695770
H        0.2401404546   -2.4473459139    2.7794504750
H       -1.0067601215   -2.0326821663    3.9741895003
H       -1.4609984260   -2.3162528742    2.2816776684
H       -1.8542856599    1.2111210349   -4.0946025117
H       -0.4144635033    0.3819363899   -4.7281394508
H       -1.9880002926   -0.4402275733   -4.7301972314
H        3.2515919733   -0.8989945028   -0.7094462199
H        2.2451763689   -0.9232659948   -2.1604699438
H       -1.4232212394    0.1463659303    2.7548610026
H        0.2552459190    0.0277532779    3.3129485112
H       -0.5516018778   -1.2854555592   -2.8385654559
H       -1.9959584695   -0.4383375517   -2.2096545517
28   
torsion grid (-60,)
C        1.3438335261   -0.1950536241   -0.3893639276
C       -0.8080321307    0.2634736878    0.2149195062
C        3.1114632173    1.0696653833   -1.6741609625
C       -0.6920602533   -1.9307570462    2.8683544047
C       -1.3576589377    0.1609908731   -4.1488487641
C        2.5560778968   -0.3025671757   -1.2515713837
C       -0.4937785201   -0.4362449618    2.6083608190
C       -1.1549086328   -0.2963506242   -2.7176365678
N        1.2814825660   -0.4545878081    0.8899787623
N        0.1246259764    0.2680929553   -0.8354907650
N       -0.0244734360   -0.1652416135    1.2608325445
O       -2.0006290276    0.5590270770    0.1825850898
O       -0.1486546519    0.5930722733   -2.1456259901
H        2.3703182052    1.6321134703   -2.2482586085
H        4.0024578891    0.9414273907   -2.2967744694
H        3.3887102105    1.6607023295   -0.7961498288
H        0.2451727823   -2.4743863581    2.7192338229
H       -1.0270295854   -2.0929723879    3.8982291647
H       -1.4470298218   -2.3426218739    2.1916660353
H       -1.7147500146    1.1942332430   -4.1759941614
H       -0.4273742185    0.0953757015   -4.7211365282
H       -2.1065903649   -0.4747529836   -4.6312939661
H        3.3025372289   -0.8628224003   -0.6827321175
H        2.3087917352   -0.8897913013   -2.1435195025
H       -1.4340481466    0.1091703122    2.7176084455
H        0.2340731235   -0.0110393867    3.3056420222
H       -0.7749609027   -1.3243575476   -2.6649016912
H       -2.0683419437   -0.2137115715   -2.1252813581
28   
torsion grid (-45,)
C        1.3680243689   -0.1712862590   -0.3950344419
C       -0.7958471945    0.2394497729    0.1922887970
C        3.1218775953    1.1141049025   -1.6792088134
C       -0.6628511360   -1.9587624404    2.8368436517
C       -1.3361967321    0.1034466009   -4.1683243673
C        2.5859699582   -0.2638613079   -1.2505511585
C       -0.4878597521   -0.4599331291    2.5850538002
C       -1.2554395591   -0.2121696112   -2.6873142965
N        1.3026043994   -0.4360825960    0.8828268372
N        0.1476886901    0.2844003768   -0.8489567226
N       -0.0110540529   -0.1751577806    1.2428685295
O       -1.9951671926    0.5105904507    0.1612404498
O       -0.1037333017    0.5311678839   -2.1857116363
H        2.3749759058    1.6609765268   -2.2609379046
H        4.0176438346    0.9958539119   -2.2969252566
H        3.3855909401    1.7155279943   -0.8040338550
H        0.2846707069   -2.4858042236    2.6932400058
H       -1.0035516174   -2.1312772583    3.8631646251
H       -1.4051221730   -2.3802396978    2.1520875905
H       -1.4795891868    1.1759506869   -4.3277439803
H       -0.4285059546   -0.2111011454   -4.6920978512
H       -2.1893934604   -0.4251117421   -4.6049104333
H        3.3380989875   -0.8094663549   -0.6750022265
H        2.3503047159   -0.8590586530   -2.1402076512
H       -1.4381627635    0.0689128327    2.6884075321
H        0.2268687804   -0.0255101568    3.2900663985
H       -1.0823998724   -1.2803529580   -2.5053096248
H       -2.1459217302    0.1049182058   -2.1437575485
28   
torsion grid (-30,)
C        1.3783106746   -0.1751433621   -0.3801783378
C       -0.8036191709    0.1696813342    0.1788449563
C        3.1017190644    1.1399634928   -1.6773086928
C       -0.6242337873   -1.9830683926    2.8578589288
C       -1.3122019588    0.0726215712   -4.1921128586
C        2.6073204375   -0.2449109118   -1.2219302186
C       -0.4974217575   -0.4832416364    2.5841406603
C       -1.3424893580   -0.0948710130   -2.6846515382
N        1.3090454432   -0.4252359625    0.9006032465
N        0.1495179132    0.2347615198   -0.8537941755
N       -0.0151332729   -0.2033703800    1.2427598973
O       -2.0107014249    0.4054367638    0.1424774114
O       -0.0659014055    0.4260306076   -2.2118245492
H        2.3436277278    1.6480986750   -2.2792693164
H        4.0075214998    1.0373234828   -2.2830760498
H        3.3361882337    1.7699520962   -0.8139223052
H        0.3420762768   -2.4797277553    2.7323489422
H       -0.9699623967   -2.1511189156    3.8832547462
H       -1.3443387315   -2.4401414041    2.1722761624
H       -1.2064692028    1.1269059903   -4.4639264419
H       -0.4861129247   -0.4892159896   -4.6381359984
H       -2.2516889168   -0.2973731249   -4.6146379463
H        3.3709266012   -0.7510379221   -0.6257473805
H        2.4008417176   -0.8681852628   -2.0993902596
H       -1.4662195742    0.0143944607    2.6686349239
H        0.1942158722   -0.0138180007    3.2897565939
H       -1.4214034862   -1.1488144592   -2.3926281062
H       -2.1554120582    0.4601191314   -2.2173128810
28   
torsion grid (-15,)
C        1.3916128240   -0.1987782478   -0.3752390965
C       -0.8139522103    0.0444067442    0.1438869637
C        3.0605051696    1.1585884627   -1.7012700144
C       -0.5576737612   -1.9777795159    2.9114664749
C       -1.3008635964    0.1058482945   -4.2370492432
C        2.6358771103   -0.2325619039   -1.1969964325
C       -0.5038049870   -0.4857624978    2.5775490597
C       -1.3834788385    0.0080532065   -2.7250405212
N        1.3194194706   -0.3991246255    0.9146836871
N        0.1478868971    0.1079006123   -0.8816482273
N       -0.0184820869   -0.2366547815    1.2310675086
O       -2.0318316952    0.2147911083    0.0927961518
O       -0.0270990823    0.2514738264   -2.2558132045
H        2.2854747992    1.5993040142   -2.3338738254
H        3.9803549023    1.0823883421   -2.2895448111
H        3.2462205022    1.8343205153   -0.8608704710
H        0.4342423705   -2.4287228000    2.8169775069
H       -0.9077549819   -2.1217110531    3.9390746177
H       -1.2445166746   -2.4985912935    2.2373461497
H       -0.9556390315    1.0968810513   -4.5460337623
H       -0.6199661497   -0.6463179396   -4.6463536764
H       -2.2957367244   -0.0591030423   -4.6625150578
H        3.4164478549   -0.6695756762   -0.5689202827
H        2.4795566664   -0.9018540842   -2.0504251723
H       -1.4976871074   -0.0356345106    2.6307907607
H        0.1541497234    0.0469380221    3.2703149315
H       -1.7033753973   -0.9860189207   -2.3967997666
H       -2.0581794867    0.7488490705   -2.2958309025
28   
torsion grid (0,)
C        1.2544432798   -0.2439335314   -0.4581524474
C       -0.6556481201    0.7728990576    0.2589519608
C        1.8893494529   -1.5913435661   -2.4990058962
C        0.2886681221    0.6153230818    3.5540839931
C       -0.6281158600    2.6035975503   -3.7584588238
C        2.3596122510   -0.6517907318   -1.3736026874
C       -0.5444130277   -0.2048181860    2.5672677356
C       -0.8544975352    2.1141486567   -2.3400355346
N        1.0855144192   -0.6598872368    0.7702856867
N        0.2356311903    0.6075328960   -0.8175479508
N       -0.0845101433   -0.0566224847    1.1971183267
O       -1.6718194731    1.4622928243    0.3469150852
O        0.2382811511    1.1879222493   -2.0851390116
H        1.4588990334   -2.5072848653   -2.0829353601
H        2.7342456271   -1.8688459108   -3.1371205474
H        1.1340072964   -1.1065647772   -3.1231161950
H        0.2204248121    1.6823734290    3.3215368024
H       -0.0761622346    0.4607229663    4.5750069598
H        1.3394054680    0.3147088906    3.5121982770
H        0.3354139913    3.1135357190   -3.8500191464
H       -0.6548402374    1.7732715466   -4.4703460292
H       -1.4197845386    3.3111166268   -4.0241642232
H        2.8132205962    0.2461160158   -1.8072954246
H        3.1157982289   -1.1424350035   -0.7553275099
H       -0.5079532575   -1.2698241839    2.8144663022
H       -1.5886571572    0.1156081855    2.5744052059
H       -1.8076765193    1.5925961089   -2.2313725438
H       -0.8199880611    2.9282713084   -1.6129745670
28   
torsion grid (15,)
C        1.2205510334   -0.2833521162   -0.5056459297
C       -0.7582660579    0.6031041004    0.1965185773
C        1.9386491347   -1.6561575477   -2.5008674093
C        0.2531811578    0.7218964764    3.4737196388
C       -0.6056100012    2.6796867641   -3.6888937906
C        2.3438153280   -0.6361225395   -1.4212678876
C       -0.5201410024   -0.2250114075    2.5539735992
C       -0.8135351002    2.1621351511   -2.2776946920
N        1.1095610000   -0.6423882062    0.7465601050
N        0.1105732456    0.4319778097   -0.8973915387
N       -0.1000715284   -0.1165591565    1.1674664773
O       -1.8272120991    1.2091284801    0.2661324185
O        0.0683634743    1.0096927997   -2.1641125992
H        1.5911255287   -2.5868807884   -2.0422982828
H        2.7950505920   -1.8883624473   -3.1417038484
H        1.1372198974   -1.2614681031   -3.1310917426
H        0.0850024084    1.7633704586    3.1831042995
H       -0.0781002904    0.5952893907    4.5098143245
H        1.3258489429    0.5139316384    3.4250942568
H        0.4333787345    2.9813560478   -3.8514806762
H       -0.8691778380    1.9168890179   -4.4274508832
H       -1.2486184024    3.5505761574   -3.8503113279
H        2.7129590499    0.2782772446   -1.8989146376
H        3.1473692301   -1.0344974816   -0.7965221816
H       -0.3836712759   -1.2662821270    2.8599213118
H       -1.5887453502    0.0012264655    2.5672235048
H       -1.8432673349    1.8553318848   -2.0940316144
H       -0.5318511634    2.9048902702   -1.5244926312
28   
torsion grid (30,)
C        1.2043613181   -0.2934640674   -0.4927546802
C       -0.8197572425    0.4943768359    0.1960642470
C        1.9908576671   -1.6723251495   -2.4580403621
C        0.2241722800    0.7846259992    3.4621114919
C       -0.5926682575    2.6778691516   -3.6189224566
C        2.3416199497   -0.6049741121   -1.4057072309
C       -0.5117634688   -0.2269957609    2.5814811017
C       -0.7186981331    2.1847535306   -2.1898095086
N        1.1252043549   -0.6116734994    0.7722437829
N        0.0429793339    0.3274693863   -0.9025143853
N       -0.1109499275   -0.1436259329    1.1876974635
O       -1.9200289501    1.0427135700    0.2478206295
O       -0.0615653179    0.8838428764   -2.1700934508
H        1.6973562795   -2.6094264253   -1.9753448258
H        2.8569623344   -1.8720941721   -3.0967279121
H        1.1665258334   -1.3391592089   -3.0942303151
H        0.0034585254    1.8071851878    3.1409464627
H       -0.0905689726    0.6754381233    4.5052905360
H        1.3050469879    0.6266044219    3.4080739316
H        0.4561002428    2.7795974478   -3.9134680546
H       -1.0866064416    1.9907566497   -4.3120882524
H       -1.0741913223    3.6569593967   -3.7059664894
H        2.6555046930    0.3170876591   -1.9080199160
H        3.1699669962   -0.9403309715   -0.7763669589
H       -0.3236834904   -1.2501072702    2.9198219011
H       -1.5897894112   -0.0511655375    2.5986464585
H       -1.7557396581    2.0713182068   -1.8752626271
H       -0.2061411681    2.8476935293   -1.4826332807
28   
torsion grid (45,)
C        1.1958361447   -0.2839569882   -0.5061409267
C       -0.8559907521    0.4354204131    0.1783245113
C        2.0223822126   -1.6650189381   -2.4521175202
C        0.1819626424    0.7984748363    3.4391299643
C       -0.6330407578    2.6601738204   -3.6066724734
C        2.3393548784   -0.5673454936   -1.4204310996
C       -0.5178613642   -0.2491911012    2.5712845729
C       -0.5802253984    2.2177179184   -2.1572002582
N        1.1287148187   -0.5928304221    0.7616993711
N        0.0119391296    0.2917595073   -0.9182758964
N       -0.1241414934   -0.1656964523    1.1756071044
O       -1.9713882124    0.9522110126    0.2191411624
O       -0.1566392925    0.8211388326   -2.1841193948
H        1.7674173917   -2.6039197743   -1.9514738890
H        2.8911332639   -1.8430593367   -3.0936216448
H        1.1817692910   -1.3739303632   -3.0877094809
H       -0.0771441006    1.8086257482    3.1075305118
H       -0.1263124816    0.6890806877    4.4842006828
H        1.2678335816    0.6799363788    3.3841083831
H        0.3472744039    2.5737249235   -4.0848881388
H       -1.3521317448    2.0575704162   -4.1688275292
H       -0.9511306258    3.7063477404   -3.6542638860
H        2.6150898782    0.3569945749   -1.9408659224
H        3.1842382987   -0.8597715673   -0.7917031757
H       -0.2910384415   -1.2609318257    2.9198959739
H       -1.6016959928   -0.1135601888    2.5898080944
H       -1.5508433377    2.2841850175   -1.6648179196
H        0.1571247051    2.7907290151   -1.5809559845
28   
torsion grid (60,)
C        1.1895251304   -0.2557483261   -0.4876601591
C       -0.8827538507    0.4161267654    0.1906958749
C        2.0391950609   -1.6299969497   -2.4278214890
C        0.1378941000    0.7828421890    3.4602457537
C       -0.6863509001    2.6241788994   -3.6094372079
C        2.3380461131   -0.5225681451   -1.4010077910
C       -0.5394239795   -0.2721292332    2.5834554690
C       -0.4465328591    2.2311932310   -2.1649007034
N        1.1216205066   -0.5707363402    0.7788850291
N        0.0011486421    0.3108555352   -0.8959821225
N       -0.1430527100   -0.1725001707    1.1897238255
O       -2.0068059206    0.9124829413    0.2193682760
O       -0.2340841021    0.7870055300   -2.1666878394
H        1.8007588515   -2.5706346552   -1.9224073922
H        2.9105756869   -1.7962311201   -3.0689348918
H        1.1930967947   -1.3563186891   -3.0637858215
H       -0.1383116309    1.7901241880    3.1337322237
H       -0.1722038043    0.6614989212    4.5034507145
H        1.2259329778    0.6844380770    3.4086016048
H        0.1733597657    2.3703146634   -4.2368921184
H       -1.5713904607    2.1176976089   -4.0044348042
H       -0.8522592656    3.7042911977   -3.6698823394
H        2.6001166356    0.4038684072   -1.9250199622
H        3.1878231750   -0.7986654723   -0.7714719908
H       -0.2954172807   -1.2816704611    2.9270357452
H       -1.6256757030   -0.1566460470    2.5990069762
H       -1.3053158267    2.4550066047   -1.5289178430
H        0.4503897869    2.7101191294   -1.7524691836
28   
torsion grid (75,)
C        1.1713704192   -0.2048308785   -0.4732861207
C       -0.9100222795    0.4292760919    0.2202792593
C        2.0177402224   -1.5646917923   -2.4247199499
C        0.1088837518    0.7293673308    3.5050615892
C       -0.7235296991    2.5661824983   -3.6650029380
C        2.3159308993   -0.4588512056   -1.3956821652
C       -0.5561412897   -0.3081608959    2.5985520552
C       -0.3584456777    2.2360268921   -2.2311389605
N        1.1084995548   -0.5422959974    0.7876193259
N       -0.0135489117    0.3829518247   -0.8600859682
N       -0.1602544464   -0.1654073496    1.2086996899
O       -2.0432432520    0.9010200818    0.2506771913
O       -0.3209925903    0.7813472497   -2.1391082152
H        1.7914993680   -2.5089113650   -1.9204673267
H        2.8854433631   -1.7215234139   -3.0731803674
H        1.1639144321   -1.2960106619   -3.0522739104
H       -0.1773163083    1.7423218054    3.2058452231
H       -0.2012155820    0.5761766907    4.5440725394
H        1.1979690286    0.6438316058    3.4523709878
H        0.0176185758    2.1647658012   -4.3627317451
H       -1.7037997603    2.1525378013   -3.9171077700
H       -0.7642449530    3.6525665384   -3.7908016887
H        2.5708428776    0.4712308783   -1.9168380618
H        3.1715523716   -0.7329572061   -0.7731507771
H       -0.3016878324   -1.3241456816    2.9148720447
H       -1.6436363485   -0.2049376276    2.6159780990
H       -1.1050402881    2.6056816768   -1.5233806789
H        0.6298550155    2.6259153852   -1.9581671420
28   
torsion grid (90,)
C        1.1521665521   -0.1369634332   -0.4482688626
C       -0.9355356849    0.4529678517    0.2681249497
C        1.9902913611   -1.4908405218   -2.4064991676
C        0.0884015454    0.6422793209    3.5778981435
C       -0.7182502694    2.4744301449   -3.7524339026
C        2.2888548814   -0.3783550342   -1.3843003092
C       -0.5679663080   -0.3556663827    2.6220843890
C       -0.2737543405    2.2245176627   -2.3247043709
N        1.1005547126   -0.5008687310    0.8047901594
N       -0.0308003245    0.4754277864   -0.8091245939
N       -0.1693899695   -0.1453538069    1.2418822156
O       -2.0820734798    0.8864259970    0.3075556552
O       -0.3997236318    0.7922509093   -2.0950736853
H        1.7859881948   -2.4367171355   -1.8961677795
H        2.8498335156   -1.6369001582   -3.0682693446
H        1.1222996995   -1.2363337899   -3.0202976038
H       -0.2015737184    1.6665392063    3.3243372268
H       -0.2246223519    0.4398880775    4.6075739508
H        1.1781105385    0.5647085344    3.5255458717
H       -0.0887196344    1.9276644939   -4.4609056155
H       -1.7567437400    2.1620251681   -3.8916731355
H       -0.6446682166    3.5428598431   -3.9776480601
H        2.5288913029    0.5526870104   -1.9104762910
H        3.1553503182   -0.6422196666   -0.7723557742
H       -0.3085894092   -1.3838584446    2.8922427713
H       -1.6561216773   -0.2596103833    2.6404345270
H       -0.9092094604    2.7450544099   -1.6020737911
H        0.7714551745    2.5146571015   -2.1636186972
28   
torsion grid (105,)
C        1.1280053539   -0.0683793420   -0.4138714593
C       -0.9580563068    0.4850123032    0.3353230285
C        1.9407854452   -1.3593323083   -2.4276380744
C        0.0798035172    0.5749771152    3.6487195389
C       -0.7089468284    2.3747177067   -3.8229793619
C        2.2596594902   -0.2954957379   -1.3604586345
C       -0.5678213618   -0.3964445477    2.6601340066
C       -0.1848322223    2.1982346824   -2.4110035626
N        1.0889931934   -0.4666182552    0.8279422398
N       -0.0519943325    0.5768282223   -0.7420750081
N       -0.1784401018   -0.1311582890    1.2870125598
O       -2.1145165535    0.8844091560    0.3917393941
O       -0.4786828650    0.8274279625   -2.0285054735
H        1.7153532315   -2.3202519380   -1.9556815246
H        2.8000691155   -1.4972062907   -3.0914702903
H        1.0797878420   -1.0644486539   -3.0327427445
H       -0.2238274464    1.6039157116    3.4329687104
H       -0.2265189783    0.3319860969    4.6716112575
H        1.1702258735    0.5131514923    3.5898523991
H       -0.2144007428    1.6849645143   -4.5134605030
H       -1.7865788926    2.1933615960   -3.8581193015
H       -0.5175115503    3.3980155768   -4.1603825503
H        2.5271886064    0.6497533432   -1.8462606225
H        3.1173439910   -0.6053882680   -0.7576385861
H       -0.2937651862   -1.4302264708    2.8921208943
H       -1.6570534208   -0.3157365476    2.6863058581
H       -0.6829932479    2.8690171998   -1.7037186845
H        0.8980322622    2.3599651298   -2.3558392474
28   
torsion grid (120,)
C        1.1093688679   -0.0154583722   -0.3903743875
C       -0.9763491563    0.5234155473    0.3681003108
C        1.9248848571   -1.2057942193   -2.4719833352
C        0.0538264418    0.4982925889    3.7058846220
C       -0.7425930866    2.2528994355   -3.8974240960
C        2.2551392960   -0.2354322174   -1.3227851961
C       -0.5949812290   -0.4214859653    2.6699678581
C       -0.0693347737    2.1021546789   -2.5464418865
N        1.0702581932   -0.4303295760    0.8449519662
N       -0.0645762197    0.6584670422   -0.7055099714
N       -0.1932551088   -0.0978232448    1.3130147846
O       -2.1396501551    0.8975883178    0.4267482222
O       -0.5431171989    0.8497032403   -1.9892120358
H        1.6354909968   -2.1840824072   -2.0766677348
H        2.8014992745   -1.3417674921   -3.1129996138
H        1.1013401560   -0.8321303206   -3.0853471900
H       -0.2389395692    1.5386991271    3.5348939229
H       -0.2621044335    0.2118207360    4.7144962010
H        1.1440968889    0.4294348506    3.6520677143
H       -0.4751540591    1.4259133386   -4.5619166659
H       -1.8297631011    2.2733668244   -3.7843619572
H       -0.4219428713    3.1887970070   -4.3654279900
H        2.5927273277    0.7248698574   -1.7288736093
H        3.0735199548   -0.6316494834   -0.7157191127
H       -0.3320546980   -1.4672491837    2.8577706384
H       -1.6836093485   -0.3320711131    2.6914170962
H       -0.3399338834    2.9127391190   -1.8616799618
H        1.0216527564    2.0678064178   -2.6439487998
28   
torsion grid (135,)
C        1.1049681812    0.0462318503   -0.3699638455
C       -0.9896636610    0.5503867246    0.3807872540
C        1.9480508988   -1.1275831586   -2.4503534020
C        0.0158283256    0.4383580669    3.7380521339
C       -0.7552959272    2.1784953359   -3.9465661924
C        2.2654059594   -0.1715953011   -1.2853787705
C       -0.6237236051   -0.4436974556    2.6644058778
C        0.0503730176    1.9768610654   -2.6761888227
N        1.0595861055   -0.3881410162    0.8576994888
N       -0.0667466657    0.7368670537   -0.6807385554
N       -0.2074771786   -0.0735155986    1.3238576582
O       -2.1617807857    0.8934325404    0.4327904226
O       -0.5858105709    0.8920313226   -1.9602944728
H        1.6531343069   -2.1095948193   -2.0688591295
H        2.8318926944   -1.2570997780   -3.0825886092
H        1.1309867577   -0.7519699605   -3.0715104203
H       -0.2735250591    1.4846183105    3.6002814794
H       -0.3108790143    0.1174219361    4.7327358152
H        1.1064980744    0.3696084153    3.6931526917
H       -0.7593458850    1.2680757769   -4.5532585372
H       -1.7886880290    2.4438629950   -3.7088464873
H       -0.3118703818    2.9850429400   -4.5387841621
H        2.6262127026    0.7888270698   -1.6696378495
H        3.0652155691   -0.5875075848   -0.6668624810
H       -0.3652928806   -1.4961193933    2.8193664443
H       -1.7123072476   -0.3525078477    2.6769013730
H        0.0427978935    2.8692966009   -2.0407556357
H        1.0881759674    1.7139358250   -2.9065177603
28   
torsion grid (150,)
C        1.0925188986    0.1376200442   -0.3762195793
C       -1.0119150094    0.5658931238    0.3879046825
C        1.9902150346   -1.1308893600   -2.3677107129
C       -0.0072508633    0.3933392214    3.7443007474
C       -0.8278499584    2.2732937057   -3.9142948051
C        2.2579056407   -0.0631913417   -1.2897978103
C       -0.6197172488   -0.4764115236    2.6450995786
C        0.1016262516    1.8705687453   -2.7825789538
N        1.0596875529   -0.3256987064    0.8413294980
N       -0.0930122954    0.8203879430   -0.6664524026
N       -0.2126738305   -0.0565282985    1.3164334740
O       -2.1952456367    0.8647440113    0.4455971991
O       -0.6604215832    0.9874354297   -1.9304857917
H        1.7913015558   -2.0991947911   -1.8994282883
H        2.8619417742   -1.2379171208   -3.0207738958
H        1.1252003326   -0.8786097930   -2.9875059614
H       -0.3264170645    1.4342613750    3.6351202990
H       -0.3258422598    0.0354029963    4.7289450612
H        1.0850222770    0.3573297553    3.6998430389
H       -1.1676261961    1.3928978121   -4.4676641422
H       -1.7034148866    2.7993662836   -3.5255235224
H       -0.2974472585    2.9326037242   -4.6087217802
H        2.5525206758    0.8854186710   -1.7488471620
H        3.0887158699   -0.3822969938   -0.6547015892
H       -0.3308866034   -1.5248239756    2.7709117628
H       -1.7104790669   -0.4173172638    2.6578961902
H        0.4273037416    2.7372146575   -2.1957682824
H        0.9824931444    1.3518194322   -3.1721367257
28   
torsion grid (165,)
C        1.0495830148    0.2028614018   -0.3997246915
C       -1.0515119790    0.5917331904    0.3978703303
C        2.0750138971   -1.1531614776   -2.2727087334
C       -0.0089868502    0.3376015976    3.7321217142
C       -0.8254952874    2.3316649639   -3.9304625799
C        2.2347184780    0.0293490679   -1.2980969211
C       -0.6314383073   -0.5096575050    2.6209521130
C        0.0964057061    1.7738560078   -2.8592216289
N        1.0274217651   -0.2949198537    0.8069717203
N       -0.1473126131    0.8762969479   -0.6586306513
N       -0.2419872059   -0.0582258240    1.2973752763
O       -2.2353701014    0.8860964814    0.4770691681
O       -0.7638446677    1.1609605224   -1.8812148931
H        1.9641165092   -2.0875445318   -1.7153769095
H        2.9566516563   -1.2381206488   -2.9158617689
H        1.1949448351   -1.0438017131   -2.9134558015
H       -0.3333162417    1.3794022388    3.6499965884
H       -0.3147348242   -0.0435393662    4.7121193152
H        1.0827748677    0.3068982462    3.6739770680
H       -1.4336586069    1.5349619582   -4.3682441141
H       -1.4929825902    3.0885203328   -3.5109072095
H       -0.2284532267    2.7876817095   -4.7265852451
H        2.4558091705    0.9535473094   -1.8372034888
H        3.0834208424   -0.1637747853   -0.6363076580
H       -0.3378471133   -1.5596175896    2.7197726382
H       -1.7221136909   -0.4543939397    2.6477356468
H        0.6827503959    2.5688186239   -2.3819538364
H        0.7766636564    1.0317554018   -3.2857557631
28   
torsion grid (180,)
C        0.9414101898   -0.4403619319   -0.4684470392
C       -1.0593414461    0.2212864654    0.4213484305
C        2.9253697788    0.5772046581   -1.6814622455
C       -0.6585535265   -1.6452740545    3.2510302675
C       -1.3361235310    0.4507101843   -4.2638228018
C        2.1148309840   -0.6947991746   -1.3686262724
C       -0.3784899068   -0.2103739152    2.7996079157
C       -0.3557028682    0.0461779070   -3.1758232754
N        1.0708443591   -0.5346107359    0.8326691482
N       -0.3286594296    0.0330224975   -0.7687828593
N       -0.1255797528   -0.1174036490    1.3725950711
O       -2.2202165016    0.5880412129    0.5518348194
O       -1.0617516416    0.2278793983   -1.9404041592
H        2.3273397380    1.3287619387   -2.2052577279
H        3.7873028404    0.3321070425   -2.3103321055
H        3.2912006874    1.0283823491   -0.7550662339
H        0.1894047614   -2.2948968662    3.0154218302
H       -0.8275446246   -1.6743160895    4.3326436106
H       -1.5497299792   -2.0376848544    2.7521533664
H       -2.2372540807   -0.1666805996   -4.2200763493
H       -1.6254789256    1.4989823397   -4.1532113466
H       -0.8680205709    0.3163987095   -5.2440057850
H        2.7510153076   -1.3943616336   -0.8197628443
H        1.8147923013   -1.1984143238   -2.2885507095
H       -1.2359163713    0.4364666635    2.9990768760
H        0.4928553397    0.2010141427    3.3172773312
H        0.5381931097    0.6774167810   -3.1999895470
H       -0.0618022410   -1.0043191528   -3.2884378137
