
  -OEChem-05262117483D

 53 56  0     1  0  0  0  0  0999 V2000
   -0.6870    2.0046   -5.0381 C   0  0  0  0  0  0  0  0  0  0  0  0
    1.0404    2.6189    1.3086 C   0  0  0  0  0  0  0  0  0  0  0  0
    1.1591    1.9526    0.0648 C   0  0  0  0  0  0  0  0  0  0  0  0
    0.4691    2.0200    2.4351 C   0  0  0  0  0  0  0  0  0  0  0  0
    0.1591    0.0358    1.0544 C   0  0  0  0  0  0  0  0  0  0  0  0
    0.7117    0.6406   -0.0756 C   0  0  0  0  0  0  0  0  0  0  0  0
   -0.3638   -1.2805    1.1828 C   0  0  0  0  0  0  0  0  0  0  0  0
    0.0226    0.7005    2.2925 C   0  0  0  0  0  0  0  0  0  0  0  0
   -0.8111   -1.4162    2.4791 C   0  0  0  0  0  0  0  0  0  0  0  0
   -0.2093   -2.2168    0.0244 C   0  0  0  0  0  0  0  0  0  0  0  0
    0.3712    0.7095   -2.5870 C   0  0  0  0  0  0  0  0  0  0  0  0
    0.2077   -1.4796   -3.7878 C   0  0  0  0  0  0  0  0  0  0  0  0
    0.7263   -0.1767   -1.3634 C   0  0  2  0  0  0  0  0  0  0  0  0
   -0.3426   -0.0634   -3.7093 C   0  0  2  0  0  0  0  0  0  0  0  0
   -0.2615   -1.3669   -1.2636 C   0  0  1  0  0  0  0  0  0  0  0  0
    1.6916   -5.6170   -3.3132 C   0  0  0  0  0  0  0  0  0  0  0  0
    0.4952   -4.0043    3.2725 C   0  0  0  0  0  0  0  0  0  0  0  0
   -0.1886    0.6246   -5.0833 C   0  0  0  0  0  0  0  0  0  0  0  0
   -1.4267   -2.6134    3.1503 C   0  0  0  0  0  0  0  0  0  0  0  0
    0.8588   -4.3605   -3.6032 C   0  0  0  0  0  0  0  0  0  0  0  0
    0.8418   -3.4448   -2.3798 C   0  0  0  0  0  0  0  0  0  0  0  0
   -1.0890    3.0914   -4.9552 N   0  0  0  0  0  0  0  0  0  0  0  0
   -0.5741   -0.2147    3.1499 N   0  0  0  0  0  0  0  0  0  0  0  0
   -0.1098   -2.2695   -2.5261 N   0  3  2  0  0  0  0  0  0  0  0  0
   -0.8142   -3.8269    2.7339 O   0  0  0  0  0  0  0  0  0  0  0  0
    1.4000    3.6406    1.3861 H   0  0  0  0  0  0  0  0  0  0  0  0
    1.5951    2.4906   -0.7725 H   0  0  0  0  0  0  0  0  0  0  0  0
    0.3824    2.5665    3.3700 H   0  0  0  0  0  0  0  0  0  0  0  0
    0.7583   -2.7232    0.1080 H   0  0  0  0  0  0  0  0  0  0  0  0
   -0.9834   -2.9913    0.0090 H   0  0  0  0  0  0  0  0  0  0  0  0
   -0.2652    1.5363   -2.2664 H   0  0  0  0  0  0  0  0  0  0  0  0
    1.2890    1.1580   -2.9806 H   0  0  0  0  0  0  0  0  0  0  0  0
   -0.2021   -2.0426   -4.6276 H   0  0  0  0  0  0  0  0  0  0  0  0
    1.2956   -1.4638   -3.8847 H   0  0  0  0  0  0  0  0  0  0  0  0
    1.7343   -0.5938   -1.5002 H   0  0  0  0  0  0  0  0  0  0  0  0
   -1.4172   -0.1142   -3.4970 H   0  0  0  0  0  0  0  0  0  0  0  0
   -1.2759   -0.9674   -1.3461 H   0  0  0  0  0  0  0  0  0  0  0  0
    2.7260   -5.3592   -3.0646 H   0  0  0  0  0  0  0  0  0  0  0  0
    1.2737   -6.1906   -2.4801 H   0  0  0  0  0  0  0  0  0  0  0  0
    1.7124   -6.2674   -4.1906 H   0  0  0  0  0  0  0  0  0  0  0  0
    0.8588   -4.9660    2.9061 H   0  0  0  0  0  0  0  0  0  0  0  0
    0.4683   -4.0268    4.3705 H   0  0  0  0  0  0  0  0  0  0  0  0
    1.1774   -3.2059    2.9491 H   0  0  0  0  0  0  0  0  0  0  0  0
   -0.7412    0.0824   -5.8582 H   0  0  0  0  0  0  0  0  0  0  0  0
    0.8645    0.6475   -5.3864 H   0  0  0  0  0  0  0  0  0  0  0  0
   -1.3776   -2.5039    4.2449 H   0  0  0  0  0  0  0  0  0  0  0  0
   -2.4828   -2.7093    2.8779 H   0  0  0  0  0  0  0  0  0  0  0  0
   -0.1687   -4.6534   -3.8571 H   0  0  0  0  0  0  0  0  0  0  0  0
    1.2731   -3.8462   -4.4746 H   0  0  0  0  0  0  0  0  0  0  0  0
    0.5130   -4.0099   -1.5100 H   0  0  0  0  0  0  0  0  0  0  0  0
    1.8285   -3.0263   -2.1687 H   0  0  0  0  0  0  0  0  0  0  0  0
   -0.8179   -0.0409    4.1160 H   0  0  0  0  0  0  0  0  0  0  0  0
   -1.0369   -2.6816   -2.6654 H   0  0  0  0  0  0  0  0  0  0  0  0
  1 18  1  0  0  0  0
  1 22  3  0  0  0  0
  2  3  1  0  0  0  0
  2  4  2  0  0  0  0
  2 26  1  0  0  0  0
  3  6  2  0  0  0  0
  3 27  1  0  0  0  0
  4  8  1  0  0  0  0
  4 28  1  0  0  0  0
  5  6  1  0  0  0  0
  5  7  1  0  0  0  0
  5  8  2  0  0  0  0
  6 13  1  0  0  0  0
  7  9  2  0  0  0  0
  7 10  1  0  0  0  0
  8 23  1  0  0  0  0
  9 19  1  0  0  0  0
  9 23  1  0  0  0  0
 10 15  1  0  0  0  0
 10 29  1  0  0  0  0
 10 30  1  0  0  0  0
 11 13  1  0  0  0  0
 11 14  1  0  0  0  0
 11 31  1  0  0  0  0
 11 32  1  0  0  0  0
 12 14  1  0  0  0  0
 12 24  1  0  0  0  0
 12 33  1  0  0  0  0
 12 34  1  0  0  0  0
 13 15  1  0  0  0  0
 13 35  1  0  0  0  0
 14 18  1  0  0  0  0
 14 36  1  0  0  0  0
 15 24  1  0  0  0  0
 15 37  1  0  0  0  0
 16 20  1  0  0  0  0
 16 38  1  0  0  0  0
 16 39  1  0  0  0  0
 16 40  1  0  0  0  0
 17 25  1  0  0  0  0
 17 41  1  0  0  0  0
 17 42  1  0  0  0  0
 17 43  1  0  0  0  0
 18 44  1  0  0  0  0
 18 45  1  0  0  0  0
 19 25  1  0  0  0  0
 19 46  1  0  0  0  0
 19 47  1  0  0  0  0
 20 21  1  0  0  0  0
 20 48  1  0  0  0  0
 20 49  1  0  0  0  0
 21 24  1  0  0  0  0
 21 50  1  0  0  0  0
 21 51  1  0  0  0  0
 23 52  1  0  0  0  0
 24 53  1  0  0  0  0
M  CHG  1  24   1
M  END
$$$$
