66
0 1 C24F3H30N5O3S
C                   -10.077573132660    -2.208998422451     8.511029118626
C                    -8.048107244279    -3.240554161528     9.381339539720
C                    -6.664415224163    -3.397925272608     9.405364370297
C                    -6.448458755920    -1.698251744931     7.687433382168
C                    -8.645412390667    -2.322557788069     8.504862240874
C                    -7.829541355584    -1.546207379279     7.654881834528
C                    -5.868624146429    -2.631018983661     8.553696513077
C                    -3.716750181616    -2.711399430306     9.776464780326
C                    -3.619226822269    -3.008338998659     7.472425469367
C                     4.068502809177    -0.573132945250     0.150629366957
C                     3.910552682977    -0.192024979235     2.567514336938
C                     2.845258917452    -2.194255116728     1.655392089815
C                     2.663289151903     0.058308745651     3.409554899623
C                     1.619481224698    -1.907826896941     2.524658121475
C                    -2.249405023688    -2.898439433213     9.391118364149
C                    -1.713874585512    -4.173069845287    10.064760519407
C                    -1.442654887009    -1.659701968316     9.805361676688
C                     3.973530935961    -1.741843897725    -3.344874775687
C                     3.712560288756    -1.480869392819    -1.035557551773
C                    -0.744513149840    -1.977020701397     6.339922737268
C                     0.383968867353    -2.262293325158     5.344464530570
C                    -1.194296728820    -3.253486093658     7.059876031913
C                     0.861647118101    -0.986813641870     4.644475642138
C                    -8.448983672770    -0.541738628793     6.708193049365
N                   -11.239902705401    -2.152188322535     8.550944331198
N                    -4.454336026053    -2.776892603275     8.596342888610
N                    -2.347296616289    -3.046234394736     7.931997868934
N                     3.568382576267    -0.959913251747     1.372502832585
N                     2.001666436761    -1.206188568435     3.751218440864
O                    -4.154864397664    -2.544008412243    10.898032261162
O                     4.747086722859     0.436845005675     0.005247421765
O                     4.266683362938    -0.946043358302    -2.208906678998
F                    -7.508643871112     0.128262162826     6.003240637450
F                    -9.269784496288    -1.140990454094     5.815190996176
F                    -9.183280543256     0.380981439745     7.373252093144
S                    -4.138729800386    -3.225625818410     5.911701399214
H                    -8.676987389391    -3.832966254962    10.037458071023
H                    -6.206337199873    -4.107131898872    10.085175678768
H                    -5.822755203394    -1.100317893682     7.038599848313
H                     4.362493706861     0.746323158155     2.247593443717
H                     4.646086198270    -0.751154297375     3.162415283089
H                     3.504926021169    -2.896036889300     2.185676926597
H                     2.519497918698    -2.671912983569     0.732146961065
H                     2.956703045340     0.561256266562     4.336864834323
H                     1.983998469139     0.735772010171     2.858305220653
H                     0.889726435672    -1.317866634985     1.936196986806
H                     1.148330872271    -2.860588482731     2.780270791212
H                    -0.653861272993    -4.315956958061     9.837537360339
H                    -2.265880665095    -5.054504306906     9.726255668687
H                    -1.825994335112    -4.081583725859    11.147806730405
H                    -0.387697460563    -1.787948022987     9.546803294382
H                    -1.522831436382    -1.521689064495    10.886391801889
H                    -1.819133155693    -0.761812587870     9.308085543739
H                     4.439824674577    -1.253027726135    -4.202761491735
H                     2.888696100699    -1.816508214474    -3.519335241443
H                     4.382758728064    -2.759349870732    -3.244360443244
H                     2.615486531839    -1.560828381565    -1.123541962720
H                     4.098349959640    -2.497999030868    -0.849087149923
H                    -1.606503613990    -1.553377852195     5.815066152688
H                    -0.417975318941    -1.235570069411     7.078380819210
H                     1.241639859020    -2.719172810692     5.853690495664
H                     0.025704899427    -2.992555886176     4.610166575270
H                    -0.382466893093    -3.653722884488     7.673006185744
H                    -1.464567337412    -4.018630301870     6.326877492421
H                     0.013957408772    -0.515635883355     4.110513420625
H                     1.181935249722    -0.271813879842     5.411020079707
