
  -OEChem-05262117483D

 53 56  0     1  0  0  0  0  0999 V2000
    2.0590    2.6798   -4.9937 C   0  0  0  0  0  0  0  0  0  0  0  0
    0.7902    2.7761    1.5024 C   0  0  0  0  0  0  0  0  0  0  0  0
    0.7474    2.4490    0.1224 C   0  0  0  0  0  0  0  0  0  0  0  0
    0.8306    1.8077    2.5085 C   0  0  0  0  0  0  0  0  0  0  0  0
    0.7841    0.1439    0.7330 C   0  0  0  0  0  0  0  0  0  0  0  0
    0.7474    1.1167   -0.2725 C   0  0  0  0  0  0  0  0  0  0  0  0
    0.7552   -1.2768    0.5869 C   0  0  0  0  0  0  0  0  0  0  0  0
    0.8204    0.4654    2.1025 C   0  0  0  0  0  0  0  0  0  0  0  0
    0.7638   -1.8030    1.8617 C   0  0  0  0  0  0  0  0  0  0  0  0
    0.6314   -1.8748   -0.7925 C   0  0  0  0  0  0  0  0  0  0  0  0
    0.3199    1.4281   -2.8226 C   0  0  0  0  0  0  0  0  0  0  0  0
    0.7145   -0.7652   -4.0593 C   0  0  0  0  0  0  0  0  0  0  0  0
    0.7757    0.5340   -1.6735 C   0  0  2  0  0  0  0  0  0  0  0  0
    0.6886    0.7711   -4.1776 C   0  0  2  0  0  0  0  0  0  0  0  0
   -0.0477   -0.7861   -1.6457 C   0  0  1  0  0  0  0  0  0  0  0  0
   -2.3938   -4.5040   -2.7647 C   0  0  0  0  0  0  0  0  0  0  0  0
    0.2019   -5.4242    1.6904 C   0  0  0  0  0  0  0  0  0  0  0  0
    2.0632    1.2410   -4.7074 C   0  0  0  0  0  0  0  0  0  0  0  0
    0.7461   -3.2219    2.3404 C   0  0  0  0  0  0  0  0  0  0  0  0
   -2.0512   -3.0213   -2.5721 C   0  0  0  0  0  0  0  0  0  0  0  0
   -0.7384   -2.6764   -3.2716 C   0  0  0  0  0  0  0  0  0  0  0  0
    2.0117    3.8237   -5.1922 N   0  0  0  0  0  0  0  0  0  0  0  0
    0.8171   -0.7488    2.7762 N   0  0  0  0  0  0  0  0  0  0  0  0
   -0.3591   -1.2198   -3.1018 N   0  3  2  0  0  0  0  0  0  0  0  0
    0.2036   -4.0462    1.3204 O   0  0  0  0  0  0  0  0  0  0  0  0
    0.7927    3.8241    1.7870 H   0  0  0  0  0  0  0  0  0  0  0  0
    0.7211    3.2560   -0.6044 H   0  0  0  0  0  0  0  0  0  0  0  0
    0.8624    2.0984    3.5548 H   0  0  0  0  0  0  0  0  0  0  0  0
    1.6146   -2.1236   -1.2157 H   0  0  0  0  0  0  0  0  0  0  0  0
    0.0518   -2.7947   -0.7431 H   0  0  0  0  0  0  0  0  0  0  0  0
   -0.7598    1.6106   -2.7564 H   0  0  0  0  0  0  0  0  0  0  0  0
    0.7869    2.4130   -2.7577 H   0  0  0  0  0  0  0  0  0  0  0  0
    0.5276   -1.2419   -5.0230 H   0  0  0  0  0  0  0  0  0  0  0  0
    1.6626   -1.1439   -3.6732 H   0  0  0  0  0  0  0  0  0  0  0  0
    1.8220    0.2547   -1.8638 H   0  0  0  0  0  0  0  0  0  0  0  0
   -0.0622    1.0456   -4.9260 H   0  0  0  0  0  0  0  0  0  0  0  0
   -1.0302   -0.5719   -1.2183 H   0  0  0  0  0  0  0  0  0  0  0  0
   -2.4858   -4.7617   -3.8245 H   0  0  0  0  0  0  0  0  0  0  0  0
   -1.6253   -5.1462   -2.3228 H   0  0  0  0  0  0  0  0  0  0  0  0
   -3.3443   -4.7387   -2.2800 H   0  0  0  0  0  0  0  0  0  0  0  0
   -0.2259   -5.9788    0.8532 H   0  0  0  0  0  0  0  0  0  0  0  0
   -0.4122   -5.5931    2.5852 H   0  0  0  0  0  0  0  0  0  0  0  0
    1.2214   -5.7856    1.8816 H   0  0  0  0  0  0  0  0  0  0  0  0
    2.3324    0.7047   -5.6241 H   0  0  0  0  0  0  0  0  0  0  0  0
    2.8492    1.0377   -3.9710 H   0  0  0  0  0  0  0  0  0  0  0  0
    1.7666   -3.5548    2.5930 H   0  0  0  0  0  0  0  0  0  0  0  0
    0.1430   -3.3021    3.2600 H   0  0  0  0  0  0  0  0  0  0  0  0
   -1.9914   -2.7968   -1.5038 H   0  0  0  0  0  0  0  0  0  0  0  0
   -2.8555   -2.3998   -2.9874 H   0  0  0  0  0  0  0  0  0  0  0  0
    0.0975   -3.2739   -2.9077 H   0  0  0  0  0  0  0  0  0  0  0  0
   -0.8303   -2.8434   -4.3479 H   0  0  0  0  0  0  0  0  0  0  0  0
    0.8147   -0.8606    3.7815 H   0  0  0  0  0  0  0  0  0  0  0  0
   -1.1989   -0.6925   -3.3587 H   0  0  0  0  0  0  0  0  0  0  0  0
  1 18  1  0  0  0  0
  1 22  3  0  0  0  0
  2  3  1  0  0  0  0
  2  4  2  0  0  0  0
  2 26  1  0  0  0  0
  3  6  2  0  0  0  0
  3 27  1  0  0  0  0
  4  8  1  0  0  0  0
  4 28  1  0  0  0  0
  5  6  1  0  0  0  0
  5  7  1  0  0  0  0
  5  8  2  0  0  0  0
  6 13  1  0  0  0  0
  7  9  2  0  0  0  0
  7 10  1  0  0  0  0
  8 23  1  0  0  0  0
  9 19  1  0  0  0  0
  9 23  1  0  0  0  0
 10 15  1  0  0  0  0
 10 29  1  0  0  0  0
 10 30  1  0  0  0  0
 11 13  1  0  0  0  0
 11 14  1  0  0  0  0
 11 31  1  0  0  0  0
 11 32  1  0  0  0  0
 12 14  1  0  0  0  0
 12 24  1  0  0  0  0
 12 33  1  0  0  0  0
 12 34  1  0  0  0  0
 13 15  1  0  0  0  0
 13 35  1  0  0  0  0
 14 18  1  0  0  0  0
 14 36  1  0  0  0  0
 15 24  1  0  0  0  0
 15 37  1  0  0  0  0
 16 20  1  0  0  0  0
 16 38  1  0  0  0  0
 16 39  1  0  0  0  0
 16 40  1  0  0  0  0
 17 25  1  0  0  0  0
 17 41  1  0  0  0  0
 17 42  1  0  0  0  0
 17 43  1  0  0  0  0
 18 44  1  0  0  0  0
 18 45  1  0  0  0  0
 19 25  1  0  0  0  0
 19 46  1  0  0  0  0
 19 47  1  0  0  0  0
 20 21  1  0  0  0  0
 20 48  1  0  0  0  0
 20 49  1  0  0  0  0
 21 24  1  0  0  0  0
 21 50  1  0  0  0  0
 21 51  1  0  0  0  0
 23 52  1  0  0  0  0
 24 53  1  0  0  0  0
M  CHG  1  24   1
M  END
$$$$
