65
-1 1 C25H28N5O6S
C                     1.718923878037     4.132719151622    -9.618948473603
C                     0.159546278129     2.357784183632   -10.191387889784
C                     1.259154026578     4.878941861359   -10.705938187259
C                    -0.286321003192     3.107758309992   -11.272849103909
C                     1.561050583076     0.964077045587   -13.624803553881
C                     1.195861680460     2.190208551516   -14.161638916600
C                     2.970141468854     3.248565798662   -12.874671013031
C                     3.343181001146     2.026132971556   -12.321957984445
C                     1.185466184661     2.860010663551    -9.380442288009
C                     0.279249608126     4.358044474833   -11.560069697776
C                     2.584084515854     0.878111990751   -12.653158041199
C                     1.893892994220     3.341523184197   -13.762280168349
C                     3.027200308518     1.983825073642    -7.892997270378
C                     3.784296313450    -1.754434118964   -10.294046622913
C                     4.508863271357     1.931397645844   -11.362951927649
C                     4.814388893415     0.474616066274   -11.003170480570
C                     2.122601664846    -0.502918273287    -0.964504424978
C                     2.784144304893     0.827464683339    -0.490541934893
C                     2.321921182593    -0.551083834832    -2.497117691516
C                     3.325013278566     1.501398690412    -1.771378891843
C                     3.520743344959    -0.309704799079   -10.816528164920
C                     3.544078234288     0.346912365326    -2.765484669761
C                     3.712420559514     0.798006467543    -4.217677928366
C                     3.969025425937    -0.349871852377    -5.200702523822
C                     4.188790451358     0.109787655050    -6.640415074412
N                     1.011748106905     0.927719062769    -7.927773441969
N                     1.800307676424     0.207373589602    -7.230082315071
N                     1.711495542359     2.032009574440    -8.359427568465
N                     3.014593957958     0.805546210899    -7.174856148382
N                    -0.046648802074     5.038584915416   -12.772325965569
O                     3.593876667369    -2.709830499253   -11.070198299202
O                     3.946328263940     2.781775575403    -8.062666618587
O                     4.203537725910    -1.734173526974    -9.095047450771
O                     0.392709393177     4.980939689194   -15.268313017057
O                     2.174549594590     5.964889476918   -13.717475247224
O                     2.777099014138    -0.319879469229   -12.078141156285
S                     1.177874497269     4.937207918285   -14.026443823217
H                     2.516020906917     4.509012028362    -8.989377524685
H                    -0.234533816318     1.365874078380   -10.005030043927
H                     1.695881835376     5.846157541651   -10.933576835106
H                    -1.027267837306     2.682772075648   -11.945192764127
H                     1.036551410076     0.051872035148   -13.893894065543
H                     0.370253604781     2.268573473292   -14.863362559056
H                     3.503174455185     4.150793866016   -12.590561605447
H                     5.385226082713     2.414094549756   -11.813399184811
H                     4.278678767825     2.497204825835   -10.453840270221
H                     5.390752370284    -0.013639547897   -11.797938293624
H                     5.392248026169     0.410291824596   -10.079665552269
H                     2.613041828378    -1.359966095287    -0.490470644139
H                     1.063771396775    -0.558115488690    -0.692472428873
H                     2.079758694688     1.473602106932     0.043221792248
H                     3.605149999368     0.616735274122     0.203537668670
H                     2.446463859349    -1.570852442589    -2.872439999042
H                     1.451093501359    -0.123894619885    -3.011443353264
H                     2.574216784362     2.186741096676    -2.186368053201
H                     4.233420696378     2.087449481096    -1.594485729656
H                     2.874128111387     0.199650888516   -10.091762384552
H                     4.448232924738    -0.202684529171    -2.459974155712
H                     2.810182152037     1.344242208317    -4.523680190921
H                     4.541025900206     1.516888771015    -4.280418369112
H                     4.864604244053    -0.907485125436    -4.899140206233
H                     3.138268471874    -1.061867882847    -5.182225782917
H                     4.395114264501    -0.719166720347    -7.328069096068
H                     5.000546715578     0.839440381667    -6.707081803682
H                    -0.894633517114     4.665314391981   -13.197535539155
