
  -OEChem-05262117483D

 24 24  0     0  0  0  0  0  0999 V2000
    4.0990    1.2763   -5.6890 C   0  0  0  0  0  0  0  0  0  0  0  0
    3.6333    0.3390   -4.8119 C   0  0  0  0  0  0  0  0  0  0  0  0
    5.8115   -0.1151   -4.5055 C   0  0  0  0  0  0  0  0  0  0  0  0
    1.3368    1.3043   -4.6199 C   0  0  0  0  0  0  0  0  0  0  0  0
    0.6091    3.2384   -3.4799 C   0  0  0  0  0  0  0  0  0  0  0  0
    8.2954   -1.5936   -6.1597 C   0  0  0  0  0  0  0  0  0  0  0  0
    2.1723    0.0529   -4.5157 C   0  0  0  0  0  0  0  0  0  0  0  0
    4.5678   -0.4287   -4.1604 N   0  0  0  0  0  0  0  0  0  0  0  0
    6.8835   -0.7487   -3.9922 N   0  5  0  0  0  0  0  0  0  0  0  0
    0.7843    1.7121   -5.6281 O   0  0  0  0  0  0  0  0  0  0  0  0
    9.3393   -1.2038   -3.7644 O   0  0  0  0  0  0  0  0  0  0  0  0
    8.6361    0.8081   -5.1307 O   0  0  0  0  0  0  0  0  0  0  0  0
    1.2776    1.9689   -3.4348 O   0  0  0  0  0  0  0  0  0  0  0  0
    5.8470    1.2637   -5.7090 S   0  0  0  0  0  0  0  0  0  0  0  0
    8.3451   -0.5696   -4.6521 S   0  0  0  0  0  0  0  0  0  0  0  0
    3.5250    1.9531   -6.3093 H   0  0  0  0  0  0  0  0  0  0  0  0
    0.6695    3.6377   -2.4664 H   0  0  0  0  0  0  0  0  0  0  0  0
   -0.4347    3.1179   -3.7842 H   0  0  0  0  0  0  0  0  0  0  0  0
    1.1092    3.9087   -4.1843 H   0  0  0  0  0  0  0  0  0  0  0  0
    9.2679   -1.5111   -6.6505 H   0  0  0  0  0  0  0  0  0  0  0  0
    8.0954   -2.6240   -5.8614 H   0  0  0  0  0  0  0  0  0  0  0  0
    7.5051   -1.2152   -6.8119 H   0  0  0  0  0  0  0  0  0  0  0  0
    1.7706   -0.6830   -5.2197 H   0  0  0  0  0  0  0  0  0  0  0  0
    2.1099   -0.3539   -3.5045 H   0  0  0  0  0  0  0  0  0  0  0  0
  1  2  2  0  0  0  0
  1 14  1  0  0  0  0
  1 16  1  0  0  0  0
  2  7  1  0  0  0  0
  2  8  1  0  0  0  0
  3  8  2  0  0  0  0
  3  9  1  0  0  0  0
  3 14  1  0  0  0  0
  4  7  1  0  0  0  0
  4 10  2  0  0  0  0
  4 13  1  0  0  0  0
  5 13  1  0  0  0  0
  5 17  1  0  0  0  0
  5 18  1  0  0  0  0
  5 19  1  0  0  0  0
  6 15  1  0  0  0  0
  6 20  1  0  0  0  0
  6 21  1  0  0  0  0
  6 22  1  0  0  0  0
  7 23  1  0  0  0  0
  7 24  1  0  0  0  0
  9 15  1  0  0  0  0
 11 15  2  0  0  0  0
 12 15  2  0  0  0  0
M  CHG  1   9  -1
M  END
$$$$
