28
1 1 C8H15N2O3
C                     1.882190446586     2.307937166791     0.779035766171
C                     5.063983733453     3.025507571164     0.924075206706
C                     4.954191352851     3.833813621138     2.196679087026
C                     0.763969291926    -0.723118541672     0.490801967283
C                    -1.585546317869    -0.849459854724     0.569517437210
C                     3.790750888976     3.771178470782     1.238525524133
C                    -0.347550140283    -1.439819232716     1.245988039367
C                     0.591558393007     1.677640869378     1.334787610765
N                     2.623090834816     3.015682115640     1.647463739882
N                     0.187984573645     0.662373432392     0.308679740488
O                     2.139798188492     2.132651713763    -0.416970607214
O                    -1.237760079881     0.536563153962     0.263156704721
O                    -0.223332288375    -1.062470790318     2.609738810064
H                     5.669724477881     3.405895586293     0.108751811827
H                     5.040615288997     1.944321994866     1.011131911793
H                     4.869840981730     3.286370668393     3.131321528704
H                     5.486161100455     4.776380502129     2.270252933589
H                     1.699181133574    -0.658246146488     1.043860162288
H                     0.931375502666    -1.145130085703    -0.500085386591
H                    -1.828075573207    -1.363841545756    -0.364883704951
H                    -2.458849257256    -0.806189663929     1.220936022907
H                     3.555954103334     4.651377282446     0.646894893144
H                    -0.285643883909    -2.523602746321     1.103510197540
H                    -0.214231038321     2.414196045945     1.366584773957
H                     0.684784838695     1.188295287740     2.303364080838
H                     2.274565606145     3.148931392669     2.591273377677
H                     0.515553712718     1.063166044505    -0.593920518365
H                    -0.809648403220    -1.605298534604     3.162130061864
