
  -OEChem-05262117483D

 24 24  0     0  0  0  0  0  0999 V2000
    4.5633    1.1164   -4.8846 C   0  0  0  0  0  0  0  0  0  0  0  0
    3.9424    0.2544   -4.0261 C   0  0  0  0  0  0  0  0  0  0  0  0
    5.6894   -1.0792   -4.4867 C   0  0  0  0  0  0  0  0  0  0  0  0
    2.2398    1.9311   -3.1680 C   0  0  0  0  0  0  0  0  0  0  0  0
    1.4720    3.8511   -4.3108 C   0  0  0  0  0  0  0  0  0  0  0  0
    6.0264   -3.1418   -2.0573 C   0  0  0  0  0  0  0  0  0  0  0  0
    2.6269    0.4791   -3.3070 C   0  0  0  0  0  0  0  0  0  0  0  0
    4.5597   -0.9544   -3.7949 N   0  0  0  0  0  0  0  0  0  0  0  0
    6.5998   -2.0582   -4.5379 N   0  5  0  0  0  0  0  0  0  0  0  0
    2.2846    2.5884   -2.1433 O   0  0  0  0  0  0  0  0  0  0  0  0
    7.5069   -4.3024   -3.9096 O   0  0  0  0  0  0  0  0  0  0  0  0
    5.0200   -4.1275   -4.2986 O   0  0  0  0  0  0  0  0  0  0  0  0
    1.8041    2.4544   -4.3485 O   0  0  0  0  0  0  0  0  0  0  0  0
    6.0396    0.3850   -5.4850 S   0  0  0  0  0  0  0  0  0  0  0  0
    6.2722   -3.4928   -3.8255 S   0  0  0  0  0  0  0  0  0  0  0  0
    4.2325    2.0912   -5.2142 H   0  0  0  0  0  0  0  0  0  0  0  0
    1.1690    4.1078   -5.3269 H   0  0  0  0  0  0  0  0  0  0  0  0
    2.3390    4.4446   -4.0080 H   0  0  0  0  0  0  0  0  0  0  0  0
    0.6546    4.0363   -3.6081 H   0  0  0  0  0  0  0  0  0  0  0  0
    5.8337   -4.0997   -1.5688 H   0  0  0  0  0  0  0  0  0  0  0  0
    6.9432   -2.6904   -1.6732 H   0  0  0  0  0  0  0  0  0  0  0  0
    5.1774   -2.4651   -1.9604 H   0  0  0  0  0  0  0  0  0  0  0  0
    1.8302   -0.0587   -3.8352 H   0  0  0  0  0  0  0  0  0  0  0  0
    2.7061    0.0632   -2.3012 H   0  0  0  0  0  0  0  0  0  0  0  0
  1  2  2  0  0  0  0
  1 14  1  0  0  0  0
  1 16  1  0  0  0  0
  2  7  1  0  0  0  0
  2  8  1  0  0  0  0
  3  8  2  0  0  0  0
  3  9  1  0  0  0  0
  3 14  1  0  0  0  0
  4  7  1  0  0  0  0
  4 10  2  0  0  0  0
  4 13  1  0  0  0  0
  5 13  1  0  0  0  0
  5 17  1  0  0  0  0
  5 18  1  0  0  0  0
  5 19  1  0  0  0  0
  6 15  1  0  0  0  0
  6 20  1  0  0  0  0
  6 21  1  0  0  0  0
  6 22  1  0  0  0  0
  7 23  1  0  0  0  0
  7 24  1  0  0  0  0
  9 15  1  0  0  0  0
 11 15  2  0  0  0  0
 12 15  2  0  0  0  0
M  CHG  1   9  -1
M  END
$$$$
