
  -OEChem-05262117483D

 28 29  0     1  0  0  0  0  0999 V2000
    2.4290   -0.6046    0.2320 C   0  0  0  0  0  0  0  0  0  0  0  0
    4.7540   -3.4389   -0.2586 C   0  0  0  0  0  0  0  0  0  0  0  0
    4.9142   -2.1929   -1.0983 C   0  0  0  0  0  0  0  0  0  0  0  0
   -0.2224    0.7738   -0.1267 C   0  0  0  0  0  0  0  0  0  0  0  0
   -1.3955   -1.2096    0.3741 C   0  0  0  0  0  0  0  0  0  0  0  0
    3.5459   -2.6075   -0.6164 C   0  0  0  0  0  0  0  0  0  0  0  0
   -0.8408   -0.4493   -0.8207 C   0  0  2  0  0  0  0  0  0  0  0  0
    1.7429    0.0506    1.4400 C   0  0  0  0  0  0  0  0  0  0  0  0
    2.9189   -1.8407    0.4377 N   0  0  0  0  0  0  0  0  0  0  0  0
    0.2566    0.2112    1.2165 N   0  3  2  0  0  0  0  0  0  0  0  0
    2.5096    0.0341   -0.8203 O   0  0  0  0  0  0  0  0  0  0  0  0
   -0.3623   -1.0730    1.4003 O   0  0  0  0  0  0  0  0  0  0  0  0
    0.0880   -1.2966   -1.4570 O   0  0  0  0  0  0  0  0  0  0  0  0
    4.8462   -4.4098   -0.7337 H   0  0  0  0  0  0  0  0  0  0  0  0
    5.1077   -3.3988    0.7677 H   0  0  0  0  0  0  0  0  0  0  0  0
    5.3619   -1.3225   -0.6306 H   0  0  0  0  0  0  0  0  0  0  0  0
    5.1155   -2.2962   -2.1590 H   0  0  0  0  0  0  0  0  0  0  0  0
    0.6286    1.2104   -0.6452 H   0  0  0  0  0  0  0  0  0  0  0  0
   -0.9811    1.5252    0.0966 H   0  0  0  0  0  0  0  0  0  0  0  0
   -2.3381   -0.7969    0.7454 H   0  0  0  0  0  0  0  0  0  0  0  0
   -1.4777   -2.2800    0.1902 H   0  0  0  0  0  0  0  0  0  0  0  0
    2.8415   -2.9999   -1.3451 H   0  0  0  0  0  0  0  0  0  0  0  0
   -1.6389   -0.1204   -1.4979 H   0  0  0  0  0  0  0  0  0  0  0  0
    2.1439    1.0595    1.5622 H   0  0  0  0  0  0  0  0  0  0  0  0
    1.8358   -0.5002    2.3771 H   0  0  0  0  0  0  0  0  0  0  0  0
    2.6939   -2.3195    1.3026 H   0  0  0  0  0  0  0  0  0  0  0  0
   -0.1033    0.8002    1.9770 H   0  0  0  0  0  0  0  0  0  0  0  0
    0.7517   -0.7803   -1.9479 H   0  0  0  0  0  0  0  0  0  0  0  0
  1  8  1  0  0  0  0
  1  9  1  0  0  0  0
  1 11  2  0  0  0  0
  2  3  1  0  0  0  0
  2  6  1  0  0  0  0
  2 14  1  0  0  0  0
  2 15  1  0  0  0  0
  3  6  1  0  0  0  0
  3 16  1  0  0  0  0
  3 17  1  0  0  0  0
  4  7  1  0  0  0  0
  4 10  1  0  0  0  0
  4 18  1  0  0  0  0
  4 19  1  0  0  0  0
  5  7  1  0  0  0  0
  5 12  1  0  0  0  0
  5 20  1  0  0  0  0
  5 21  1  0  0  0  0
  6  9  1  0  0  0  0
  6 22  1  0  0  0  0
  7 13  1  0  0  0  0
  7 23  1  0  0  0  0
  8 10  1  0  0  0  0
  8 24  1  0  0  0  0
  8 25  1  0  0  0  0
  9 26  1  0  0  0  0
 10 12  1  0  0  0  0
 10 27  1  0  0  0  0
 13 28  1  0  0  0  0
M  CHG  1  10   1
M  END
$$$$
