20   
torsion grid (-165,)
C        2.5540219287   -0.8402847241   -0.3286975328
C        3.5501183754   -0.8562924298    0.6521055863
C        1.2075909741   -0.9989621206    0.0255018181
C        3.2082957686   -1.0350599013    1.9967711156
C        0.8528794769   -1.1789405871    1.3628663830
C        1.8630847694   -1.1996989775    2.3288198781
C        0.2086879007   -3.4878155618    5.2321550540
N        0.9686616145   -3.0603281620    4.0381737290
O        2.6169045748   -1.1989655150    4.8618107336
O        0.1782681881   -0.6771261319    4.3404620752
S        1.4105081224   -1.4148024108    4.0495753362
H        2.8246265214   -0.6988419006   -1.3717251438
H        4.5920943323   -0.7237889304    0.3745830482
H        0.4361306391   -0.9785010175   -0.7391912611
H        3.9603652284   -1.0349285469    2.7794528023
H       -0.1845844326   -1.2954460704    1.6599293623
H       -0.6937535795   -2.8801312091    5.3038095938
H       -0.0817313983   -4.5296560966    5.0774792711
H        0.7785319975   -3.4027181452    6.1651348001
H        1.8244652683   -3.6060378658    3.9267696162
20   
torsion grid (-150,)
C        2.4979731144   -0.8340174518   -0.3236101601
C        3.5238355093   -0.8430646853    0.6258687657
C        1.1649282190   -1.0066586736    0.0723292110
C        3.2246495933   -1.0291993725    1.9797243982
C        0.8535257655   -1.1946197414    1.4193016739
C        1.8926496387   -1.2081688614    2.3538922210
C        0.1215971746   -3.4924827449    5.1448739713
N        1.1119742746   -3.0924541543    4.1245600599
O        2.7219359086   -1.1846846107    4.8588503422
O        0.2493572554   -0.7279334562    4.3929731343
S        1.4963183784   -1.4351964007    4.0880815456
H        2.7344800964   -0.6866113737   -1.3740538572
H        4.5555579209   -0.6993427246    0.3172169807
H        0.3696374674   -0.9906343987   -0.6676935253
H        4.0009968103   -1.0230804534    2.7381653462
H       -0.1739021738   -1.3197795752    1.7463760330
H       -0.7905447966   -2.9162592640    4.9912674910
H       -0.0978657146   -4.5509130981    4.9844332267
H        0.4696343486   -3.3441640937    6.1740173636
H        1.9861192374   -3.6101559382    4.2154293597
20   
torsion grid (-135,)
C        2.4510005152   -0.8616810674   -0.3021651021
C        3.4971670096   -0.9393700919    0.6226561085
C        1.1205793882   -0.9392874172    0.1280935866
C        3.2203653501   -1.1023199798    1.9834884810
C        0.8308672288   -1.1036554005    1.4839014265
C        1.8888335798   -1.1891921353    2.3921516888
C        0.1153958234   -3.5464700054    5.0224847839
N        1.2828217949   -3.0917929017    4.2431597984
O        2.7352266517   -1.0688252387    4.8861026514
O        0.2270216498   -0.7854196270    4.4168184361
S        1.5213733317   -1.4124224345    4.1343224302
H        2.6709693323   -0.7319207520   -1.3585029617
H        4.5282633521   -0.8659180653    0.2881510771
H        0.3094728712   -0.8658283897   -0.5910451235
H        4.0158322883   -1.1430572596    2.7207439412
H       -0.1942533504   -1.1481482503    1.8379644064
H       -0.7860398787   -3.0961612576    4.6074231600
H        0.0524626147   -4.6313030585    4.9052053225
H        0.1763945013   -3.2958205891    6.0876937252
H        2.1560771206   -3.5043991765    4.5682241085
20   
torsion grid (-120,)
C        2.3927971347   -0.9120493237   -0.3014536831
C        3.4560072482   -1.0429883547    0.5992262780
C        1.0727911274   -0.8987180129    0.1626415415
C        3.2050004640   -1.1706972520    1.9675760449
C        0.8081983039   -1.0249941883    1.5289174330
C        1.8810482297   -1.1669330182    2.4111838724
C        0.1667406155   -3.5798602915    4.8639616261
N        1.4400210434   -3.0387304783    4.3554934042
O        2.7493965626   -0.9286729269    4.8910472030
O        0.2223211069   -0.7862149715    4.4322266441
S        1.5468729039   -1.3543554002    4.1644688568
H        2.5937106756   -0.8105712807   -1.3646567493
H        4.4807019461   -1.0387273521    0.2380297170
H        0.2495391909   -0.7821940969   -0.5367620409
H        4.0164704245   -1.2521875579    2.6837266514
H       -0.2073027671   -0.9937272557    1.9108645054
H       -0.6397484766   -3.3025238708    4.1842683751
H        0.2570138680   -4.6691357241    4.8664190355
H       -0.0862998269   -3.2278147753    5.8696875310
H        2.2453096006   -3.3269364304    4.9089253647
20   
torsion grid (-105,)
C        2.3308031262   -0.9625544412   -0.2546957123
C        3.4021195909   -1.1673332501    0.6240069454
C        1.0269438085   -0.8467502564    0.2370520948
C        3.1734629246   -1.2662864087    1.9974948060
C        0.7847234296   -0.9413588295    1.6111390172
C        1.8633143183   -1.1572515157    2.4701923119
C        0.2407206536   -3.6221348179    4.6784590031
N        1.5519193807   -2.9838310793    4.4711088899
O        2.7490928227   -0.8199790290    4.9427652122
O        0.2199807516   -0.7655111810    4.4974884847
S        1.5590389266   -1.3019683177    4.2320924565
H        2.5151423503   -0.8849302635   -1.3229109841
H        4.4154557778   -1.2444972175    0.2397606660
H        0.1990747540   -0.6746837298   -0.4452168733
H        3.9924441991   -1.4094107567    2.6952617146
H       -0.2157242955   -0.8310703872    2.0172948298
H       -0.3639170609   -3.5050566482    3.7766784041
H        0.4192057046   -4.6895821620    4.8303879362
H       -0.3125314340   -3.2123935997    5.5294713884
H        2.2133691294   -3.1698986581    5.2240610644
20   
torsion grid (-90,)
C        2.2612945766   -1.0133641420   -0.2223548649
C        3.3229118814   -1.3122271060    0.6422037913
C        0.9829050557   -0.7684091152    0.2870698364
C        3.1085751905   -1.3723987001    2.0195280985
C        0.7553214289   -0.8239392621    1.6664240651
C        1.8226297352   -1.1306568123    2.5110371915
C        0.3687718977   -3.6230320686    4.4681073784
N        1.6335515752   -2.8762423203    4.5686188278
O        2.7034131460   -0.6459987696    4.9793793137
O        0.1841088974   -0.7085821860    4.5335720525
S        1.5419651669   -1.2060929996    4.2805426799
H        2.4345153398   -0.9669279391   -1.2942587719
H        4.3167170569   -1.4943573960    0.2427293240
H        0.1635818471   -0.5281676581   -0.3847835024
H        3.9199283160   -1.5940330522    2.7056765248
H       -0.2238083928   -0.6218377063    2.0888088205
H        0.0041897705   -3.5691028288    3.4391872001
H        0.5848149440   -4.6700793048    4.6939879830
H       -0.4094752540   -3.2487948940    5.1412312458
H        2.1017785507   -2.9889722776    5.4679717797
20   
torsion grid (-75,)
C        2.1866779707   -1.0772679064   -0.1572908049
C        3.2330723187   -1.4390833496    0.7016376734
C        0.9350240124   -0.7302423885    0.3598128303
C        3.0303390387   -1.4568553679    2.0820536863
C        0.7189025573   -0.7451947481    1.7418695874
C        1.7707437371   -1.1130767098    2.5813885217
C        0.5063302042   -3.6074935515    4.2962646675
N        1.6541939652   -2.7740030131    4.6871608223
O        2.6506686568   -0.5000981454    5.0406305754
O        0.1434722184   -0.6393107915    4.5965138160
S        1.5119014602   -1.1181271879    4.3559143982
H        2.3504965512   -1.0636052172   -1.2315901587
H        4.2056642874   -1.7029008689    0.2956597386
H        0.1276269241   -0.4445886944   -0.3086648529
H        3.8294020109   -1.7285531011    2.7646712079
H       -0.2398922120   -0.4728849625    2.1712830105
H        0.3786810306   -3.5472619685    3.2125613030
H        0.7447496576   -4.6432318520    4.5495393129
H       -0.4294246864   -3.3120213799    4.7838360423
H        1.9152254884   -2.8629469742    5.6695946669
20   
torsion grid (-60,)
C        2.1094848274   -1.1412125214   -0.1275556937
C        3.1732927583   -1.4995116373    0.7105716658
C        0.8809134927   -0.7511991101    0.4150458045
C        3.0111111172   -1.4711311644    2.0966634979
C        0.7044921473   -0.7217302881    1.8020239015
C        1.7729058879   -1.0888717040    2.6208088771
C        0.6371156408   -3.5571973336    4.1412618188
N        1.6510024745   -2.6935500013    4.7660588675
O        2.7357905454   -0.4404180698    5.0504154916
O        0.2231308391   -0.5006080769    4.6625538818
S        1.5672949930   -1.0387754372    4.4016319974
H        2.2413989362   -1.1626457492   -1.2061058821
H        4.1280948227   -1.7948779957    0.2846264609
H        0.0606957777   -0.4673374974   -0.2384034684
H        3.8247420762   -1.7364841678    2.7646133418
H       -0.2358044473   -0.4188935871    2.2512743066
H        0.7593697032   -3.5237348446    3.0570087573
H        0.8272347016   -4.5815745327    4.4701603487
H       -0.3920801789   -3.2771389216    4.3974627451
H        1.7067176661   -2.7826500032    5.7808508591
20   
torsion grid (-45,)
C        2.0545107221   -1.1888439355   -0.0930369156
C        3.1467217303   -1.5121633406    0.7218042551
C        0.8353621752   -0.8045087653    0.4755641514
C        3.0220367921   -1.4566979581    2.1114680666
C        0.6961818642   -0.7489941224    1.8654392132
C        1.7921611635   -1.0847087318    2.6613220151
C        0.7057801163   -3.5305062626    4.0197164678
N        1.5707999318   -2.6645650882    4.8366975436
O        2.8584578508   -0.4927389902    5.0562379087
O        0.3432523771   -0.3600574425    4.7361394127
S        1.6328669083   -1.0081105666    4.4448432802
H        2.1569124685   -1.2302049567   -1.1741930470
H        4.0947229961   -1.7993427638    0.2756134109
H       -0.0057323571   -0.5440615901   -0.1608628057
H        3.8590670828   -1.6889584697    2.7628291590
H       -0.2347068173   -0.4460030453    2.3338054667
H        1.1026827687   -3.5871672709    3.0056954373
H        0.7469547787   -4.5320796036    4.4546264099
H       -0.3411394594   -3.2016345033    3.9821918981
H        1.3840155519   -2.7298485268    5.8375144947
20   
torsion grid (-30,)
C        2.0180766136   -1.2087911190   -0.0836228174
C        3.1386497493   -1.5106283602    0.6997470020
C        0.8126915013   -0.8312259522    0.5187001726
C        3.0564101470   -1.4430883446    2.0924310432
C        0.7158422960   -0.7637852768    1.9112220555
C        1.8395857024   -1.0807943215    2.6761694235
C        0.8049481618   -3.5241562257    3.9510170224
N        1.5026750577   -2.6357474302    4.8962374266
O        3.0211116876   -0.5792593775    5.0148764453
O        0.5146097433   -0.2355553937    4.8038223780
S        1.7313623567   -0.9921696876    4.4627201332
H        2.0876107344   -1.2589331663   -1.1670008432
H        4.0762822387   -1.7895237067    0.2271974491
H       -0.0495533764   -0.5835317627   -0.0940570523
H        3.9167405748   -1.6537957947    2.7203468213
H       -0.2023133954   -0.4594255308    2.4036062952
H        1.4171897141   -3.6679684682    3.0607025800
H        0.6982120179   -4.4925975163    4.4464282876
H       -0.1904881153   -3.1700018794    3.6513401684
H        1.0503922299   -2.6198504588    5.8110842028
20   
torsion grid (-15,)
C        1.9852807018   -1.2142490400   -0.0878211488
C        3.1207684519   -1.5018718589    0.6787806326
C        0.7871029756   -0.8430423477    0.5329390871
C        3.0618671760   -1.4279776177    2.0725997475
C        0.7138853355   -0.7688679126    1.9263326497
C        1.8528543787   -1.0719927301    2.6753092934
C        0.8780308079   -3.5360214166    3.9390245033
N        1.3775342813   -2.5819231552    4.9442902907
O        3.1111849765   -0.6776122012    4.9657855098
O        0.6335730612   -0.1203590884    4.8416273879
S        1.7705541079   -0.9759233262    4.4641777750
H        2.0374278309   -1.2691503598   -1.1719307561
H        4.0531961771   -1.7742238999    0.1923161436
H       -0.0871018366   -0.6044892188   -0.0663577469
H        3.9344431318   -1.6251401740    2.6876590728
H       -0.1980371995   -0.4635142230    2.4301322593
H        1.6551089145   -3.7380629664    3.2012446471
H        0.6678166651   -4.4692475151    4.4682426577
H       -0.0321709802   -3.2105310519    3.4185101040
H        0.7059061692   -2.4664710864    5.7040212102
20   
torsion grid (0,)
C        1.9382336373   -1.2033149241   -0.0726258208
C        3.0747943424   -1.5088377177    0.6851215058
C        0.7464125990   -0.8291202599    0.5585834307
C        3.0244781557   -1.4499875474    2.0801541027
C        0.6821615030   -0.7699578939    1.9530742251
C        1.8226934265   -1.0891873936    2.6938126455
C        0.9502108895   -3.6118073544    3.9452886069
N        1.2189170266   -2.5851346019    4.9665453099
O        3.1127316789   -0.8364796807    4.9650261989
O        0.6753322446   -0.0969444578    4.8968222862
S        1.7434462742   -1.0202332885    4.4863323090
H        1.9844860755   -1.2467094317   -1.1575118351
H        4.0024443391   -1.7835667678    0.1908386999
H       -0.1290694578   -0.5765493310   -0.0330751334
H        3.8984124849   -1.6606691445    2.6885607663
H       -0.2252265890   -0.4610996858    2.4633990900
H        1.8688716903   -3.8473787234    3.4056989468
H        0.6360745295   -4.5134836603    4.4776213046
H        0.1745403780   -3.3345057793    3.2203547166
H        0.3900848828   -2.4141468068    5.5360428864
20   
torsion grid (15,)
C        1.9056791171   -1.1787019099   -0.0647065487
C        3.0346097730   -1.5162541072    0.6903922825
C        0.7228377202   -0.7824316007    0.5702123836
C        2.9859856464   -1.4670022462    2.0861138155
C        0.6616188794   -0.7319186135    1.9650917897
C        1.7944205662   -1.0823464274    2.7044336863
C        1.0132247573   -3.6482377406    3.9922851034
N        1.0554280171   -2.5471593029    4.9678121274
O        3.0936743956   -0.9854871167    4.9708065466
O        0.7184564234   -0.0433803385    4.9284559497
S        1.7102888369   -1.0376465661    4.5001079722
H        1.9505277332   -1.2152291754   -1.1498959705
H        3.9555561714   -1.8090903466    0.1938899704
H       -0.1471546391   -0.5058245920   -0.0188423032
H        3.8542828075   -1.7044128976    2.6925128806
H       -0.2393133087   -0.4055796553    2.4763060206
H        2.0273677018   -3.8885920321    3.6671865150
H        0.6148601104   -4.5240951635    4.5109589391
H        0.3974732594   -3.4386417801    3.1088976603
H        0.1261143028   -2.3367399214    5.3305767934
20   
torsion grid (30,)
C        1.8630138190   -1.1520931100   -0.0987696798
C        2.9954544875   -1.5342760084    0.6288155931
C        0.7107172239   -0.7153893612    0.5655166024
C        2.9811927238   -1.4896802266    2.0257214999
C        0.6843020814   -0.6683771416    1.9614753417
C        1.8202861329   -1.0629921604    2.6738105478
C        1.1987188993   -3.6727156239    4.0712670247
N        1.0307676427   -2.4969403484    4.9384308339
O        3.1639663581   -1.0966337314    4.9155507368
O        0.8515906043    0.0097477899    4.9250268677
S        1.7716371910   -1.0384650464    4.4728149466
H        1.8810126628   -1.1857159059   -1.1848271607
H        3.8929239945   -1.8596557001    0.1100397462
H       -0.1620689199   -0.4044023936   -0.0019051065
H        3.8534116420   -1.7639706555    2.6104476136
H       -0.1922244848   -0.3101941794    2.4935167225
H        2.2641419224   -3.8813942068    3.9530232519
H        0.7472562074   -4.5267775895    4.5822536426
H        0.7437723394   -3.5592204894    3.0794616078
H        0.0496331517   -2.2821536469    5.1121999176
20   
torsion grid (45,)
C        1.8379678912   -1.1042400266   -0.1233286834
C        2.9495392702   -1.5586638351    0.5942515154
C        0.7126090870   -0.6168763118    0.5522756869
C        2.9403417435   -1.5356457047    1.9920156588
C        0.6912782437   -0.5899701969    1.9486518149
C        1.8063118132   -1.0563582240    2.6512164004
C        1.3306682192   -3.7267178293    4.1882729353
N        0.9530458298   -2.4889030542    4.8849643741
O        3.1430050610   -1.2135439604    4.9014638445
O        0.8868697679    0.0149524665    4.9098199351
S        1.7593063358   -1.0678122644    4.4512197257
H        1.8512593785   -1.1209831330   -1.2098423899
H        3.8267682077   -1.9243854515    0.0677417412
H       -0.1431871535   -0.2496831345   -0.0074031503
H        3.7980751883   -1.8663271116    2.5689302552
H       -0.1627806507   -0.1913645038    2.4884401252
H        2.4046569337   -3.8825635924    4.3079672247
H        0.8136164534   -4.5563598176    4.6762832634
H        1.0822309410   -3.7214161085    3.1193227371
H       -0.0487019620   -2.3034050772    4.8668128303
20   
torsion grid (60,)
C        1.8261186812   -1.0445166791   -0.1493897526
C        2.8980211597   -1.6049698180    0.5532295066
C        0.7457326786   -0.4823247406    0.5413902912
C        2.8923465165   -1.6138696249    1.9512510110
C        0.7280401238   -0.4866662976    1.9380371660
C        1.8014409646   -1.0602702420    2.6262545190
C        1.4941496379   -3.8071130857    4.3472636828
N        0.9286625522   -2.5355879293    4.8146447208
O        3.1289910900   -1.3042779753    4.8890325163
O        0.8935162372   -0.0328392938    4.8903503951
S        1.7545303789   -1.1201333294    4.4245939303
H        1.8366112981   -1.0358223928   -1.2360212085
H        3.7423523005   -2.0272840914    0.0153709145
H       -0.0772416572   -0.0318578847   -0.0066240218
H        3.7250085729   -2.0215493813    2.5156542315
H       -0.0885565170   -0.0320506288    2.4909855917
H        2.5264373311   -3.8748110134    4.6938469216
H        0.9246516076   -4.6179923194    4.8076495004
H        1.4673583293   -3.9221000458    3.2552099366
H       -0.0640288222   -2.4154435665    4.6221943488
20   
torsion grid (75,)
C        2.0740414022   -1.0506744312   -0.3211465528
C        3.2187904370   -1.4318326716    0.3850515249
C        0.8933196328   -0.7306203504    0.3622843607
C        3.1904162338   -1.4987969026    1.7820953185
C        0.8526669231   -0.7925508212    1.7556683818
C        2.0046861546   -1.1815035702    2.4452903390
C        1.4165802715   -3.8773160726    4.2191451448
N        0.8796108872   -2.5316715958    4.4748386284
O        3.3138859845   -1.5951547196    4.6925736691
O        1.2701533267   -0.0723609573    4.7750438985
S        1.9606372033   -1.2474940016    4.2368703886
H        2.1003621693   -0.9993115216   -1.4064165696
H        4.1343295008   -1.6737678978   -0.1474951256
H        0.0076477778   -0.4298541105   -0.1904115115
H        4.0661272787   -1.7838012571    2.3563343432
H       -0.0504176816   -0.5433572699    2.3039561569
H        1.7090973894   -3.9472511406    3.1684784175
H        2.2785267405   -4.1266811428    4.8480870824
H        0.6118703613   -4.5958427899    4.3922630001
H        0.4763732047   -2.4165690565    5.4051052242
20   
torsion grid (90,)
C        2.0479012585   -0.9540669128   -0.3781468125
C        3.1640430311   -1.4345426936    0.3125940151
C        0.8887893622   -0.5865718116    0.3184555977
C        3.1287802000   -1.5547148140    1.7061040863
C        0.8401120518   -0.7030936154    1.7079131415
C        1.9634214943   -1.1910763433    2.3815297731
C        1.4961227650   -3.9918104119    4.4043165448
N        0.8619039998   -2.6637415143    4.3649472293
O        3.2611517896   -1.6748285878    4.6252794426
O        1.1709735294   -0.2016804852    4.7261605987
S        1.9067907307   -1.3408061471    4.1675839098
H        2.0803489972   -0.8601779806   -1.4604056735
H        4.0645458262   -1.7105756426   -0.2289562067
H        0.0258774924   -0.2064199220   -0.2212295179
H        3.9870798167   -1.9100070107    2.2673935318
H       -0.0457575338   -0.4157175649    2.2654635760
H        1.9682593735   -4.1897641056    3.4387138975
H        2.2479713020   -4.0891074654    5.1943055372
H        0.7049473155   -4.7313204337    4.5498403635
H        0.2918518155   -2.4611505816    5.1864004536
20   
torsion grid (105,)
C        2.0478612757   -0.8878943969   -0.4581677335
C        3.1086981031   -1.4889607900    0.2263934186
C        0.9281902905   -0.4218829155    0.2424959232
C        3.0540906345   -1.6338293168    1.6162772750
C        0.8602400939   -0.5629648689    1.6295969537
C        1.9251842196   -1.1740901860    2.2960855953
C        1.5690024401   -4.0129263809    4.6197475497
N        0.8772689401   -2.7674580049    4.2455006163
O        3.1931585197   -1.6564196177    4.5595170771
O        1.0239458812   -0.2822191290    4.6206440829
S        1.8370191383   -1.3759478809    4.0763266679
H        2.0957899212   -0.7740299873   -1.5379031303
H        3.9821266995   -1.8377528802   -0.3176018164
H        0.1110993005    0.0558662179   -0.2909528820
H        3.8758303867   -2.0757354449    2.1707877035
H        0.0079158371   -0.1942249551    2.1914271101
H        2.2617582337   -4.2937930470    3.8236963985
H        2.1246646058   -3.9360100712    5.5597004198
H        0.8098564474   -4.7950357025    4.6996942741
H        0.1218942535   -2.5196676467    4.8835272373
20   
torsion grid (120,)
C        2.0315766328   -0.8139435853   -0.5113420909
C        3.0533520106   -1.5099142298    0.1440810951
C        0.9559071280   -0.2905355821    0.2151319879
C        3.0008951612   -1.6939666204    1.5282903771
C        0.8911783523   -0.4681443717    1.5993120466
C        1.9139040839   -1.1752699125    2.2346545329
C        1.6253065001   -4.0093966577    4.8156228656
N        0.9552023203   -2.8803184664    4.1456856900
O        3.1894302625   -1.6761614376    4.4936102427
O        0.9717118758   -0.3748499688    4.5653815429
S        1.8280394215   -1.4295997196    4.0091247732
H        2.0783092292   -0.6708343267   -1.5876322849
H        3.8949076638   -1.9026867000   -0.4198331091
H        0.1709462008    0.2618333445   -0.2939901847
H        3.7949607227   -2.2106884457    2.0579754451
H        0.0762340008   -0.0519292691    2.1829459028
H        2.5393077190   -4.2580906303    4.2751870236
H        1.8807989436   -3.8069393120    5.8611747516
H        0.9478796824   -4.8654032098    4.7606539628
H        0.0546788827   -2.6475105081    4.5612667518
20   
torsion grid (135,)
C        2.0118956599   -0.7399026046   -0.5186203895
C        2.9966557762   -1.5191909191    0.1011625117
C        0.9762853843   -0.1802265278    0.2364011832
C        2.9451750029   -1.7493654146    1.4772149357
C        0.9142935416   -0.4018485306    1.6155587346
C        1.8979746318   -1.1905113368    2.2138219312
C        1.6629009422   -4.0023056756    4.9814090414
N        1.0714026834   -3.0169502331    4.0561234721
O        3.1882393348   -1.6736111522    4.4778692850
O        0.9063210879   -0.4996260670    4.5568642726
S        1.8212015293   -1.4935428513    3.9808295998
H        2.0576854127   -0.5623563799   -1.5898122028
H        3.8071832562   -1.9421921305   -0.4858347521
H        0.2206177862    0.4347401113   -0.2444649269
H        3.7091298232   -2.3359871646    1.9776773072
H        0.1320717118    0.0406046114    2.2241100498
H        2.7120281524   -4.1461783620    4.7239887567
H        1.5955424506   -3.7079027500    6.0349769407
H        1.1314022960   -4.9453602936    4.8306389148
H        0.0794105423   -2.8616654200    4.2302027988
20   
torsion grid (150,)
C        1.9929542487   -0.6916186843   -0.5437556444
C        2.9317695152   -1.5534635537    0.0388449162
C        1.0086863193   -0.0848643383    0.2417678272
C        2.8859194479   -1.8159217573    1.4084043953
C        0.9528536584   -0.3386588704    1.6163939434
C        1.8905105012   -1.2062077924    2.1770491223
C        1.6703036907   -3.9492597662    5.1045798976
N        1.2291756765   -3.1183580334    3.9656986456
O        3.2052164884   -1.6156089444    4.4560560258
O        0.8571118089   -0.6055163032    4.5296147747
S        1.8361056923   -1.5294555954    3.9402649480
H        2.0342211916   -0.4897442818   -1.6108307469
H        3.7004869501   -2.0167402066   -0.5733830759
H        0.2878962783    0.5905084593   -0.2106711540
H        3.6107636070   -2.4726409963    1.8791264072
H        0.2092904374    0.1333984085    2.2506168998
H        2.7596043627   -3.9809027412    5.1127715112
H        1.3154998532   -3.5838910031    6.0755967345
H        1.2886129126   -4.9589732224    4.9345137118
H        0.2126403382   -3.0622305978    3.9032868750
20   
torsion grid (165,)
C        1.9388351392   -0.6596698871   -0.5586214702
C        2.8984993306   -1.5242528971   -0.0153269519
C        0.9721912719   -0.0685206160    0.2602462272
C        2.8925415381   -1.8047632390    1.3513777152
C        0.9552771949   -0.3407697793    1.6322583078
C        1.9139240882   -1.2104423172    2.1533859814
C        1.5988775042   -3.8840015434    5.1790263165
N        1.3824994155   -3.1720768425    3.9008878125
O        3.2879589940   -1.5910077161    4.4168463251
O        0.9135260096   -0.6750105540    4.5397144548
S        1.9127669390   -1.5527271406    3.9125727483
H        1.9494417633   -0.4436093074   -1.6236601747
H        3.6516482075   -1.9752450144   -0.6553993511
H        0.2355121289    0.6079669714   -0.1639995761
H        3.6312708385   -2.4650899616    1.7946144702
H        0.2260523448    0.1161259242    2.2937907642
H        2.6645412330   -3.8671621168    5.4089719334
H        1.0397335771   -3.4526584327    6.0178588253
H        1.2885062380   -4.9208782179    5.0301495509
H        0.3948227889   -3.1671162628    3.6417252525
20   
torsion grid (180,)
C        1.8927769728   -0.6547621424   -0.5498036128
C        2.8940398700   -1.4953517855   -0.0462035813
C        0.9364933025   -0.0999783923    0.3064879225
C        2.9414958211   -1.7876779477    1.3176706671
C        0.9716270505   -0.3859430479    1.6751383339
C        1.9718528232   -1.2316007721    2.1571221580
C        1.4814334052   -3.8421506406    5.2193032987
N        1.5346621756   -3.2297261928    3.8728646904
O        3.4190587830   -1.6089749081    4.3859497717
O        1.0347990583   -0.7519188070    4.5841445167
S        2.0339298532   -1.5958948496    3.9103632454
H        1.8623852625   -0.4284104156   -1.6123402719
H        3.6389065962   -1.9178787560   -0.7147108369
H        0.1673931073    0.5588508418   -0.0868514105
H        3.7142351025   -2.4281551914    1.7310749766
H        0.2507720439    0.0422645165    2.3645136106
H        2.4792565396   -3.8005669994    5.6587168369
H        0.7665623651   -3.3511504577    5.8896973958
H        1.2032198951   -4.8906992933    5.0910184885
H        0.6114021857   -3.2468452117    3.4350245301
