
  -OEChem-05262117483D

 32 33  0     1  0  0  0  0  0999 V2000
   -3.9459   -7.1506   -1.4864 C   0  0  0  0  0  0  0  0  0  0  0  0
   -5.0773   -6.3305   -1.5650 C   0  0  0  0  0  0  0  0  0  0  0  0
   -2.8072   -6.7014   -0.8086 C   0  0  0  0  0  0  0  0  0  0  0  0
   -5.0705   -5.0676   -0.9684 C   0  0  0  0  0  0  0  0  0  0  0  0
   -2.7932   -5.4291   -0.2315 C   0  0  0  0  0  0  0  0  0  0  0  0
   -3.9224   -4.6012   -0.3148 C   0  0  0  0  0  0  0  0  0  0  0  0
   -3.9811   -3.2659    0.3765 C   0  0  0  0  0  0  0  0  0  0  0  0
   -0.4764   -0.8407    0.2898 C   0  0  0  0  0  0  0  0  0  0  0  0
   -0.5680   -2.1491   -0.5053 C   0  0  0  0  0  0  0  0  0  0  0  0
   -1.4593   -0.8645    1.4681 C   0  0  0  0  0  0  0  0  0  0  0  0
   -2.0132   -2.4186   -0.9283 C   0  0  0  0  0  0  0  0  0  0  0  0
   -2.9046   -1.1813    1.0447 C   0  0  1  0  0  0  0  0  0  0  0  0
   -3.6080   -0.0209    0.3256 C   0  0  0  0  0  0  0  0  0  0  0  0
   -2.9090   -2.4169    0.2347 N   0  0  0  0  0  0  0  0  0  0  0  0
   -4.9523   -2.9897    1.0886 O   0  0  0  0  0  0  0  0  0  0  0  0
   -3.9548   -8.1374   -1.9421 H   0  0  0  0  0  0  0  0  0  0  0  0
   -5.9675   -6.6801   -2.0814 H   0  0  0  0  0  0  0  0  0  0  0  0
   -1.9329   -7.3422   -0.7270 H   0  0  0  0  0  0  0  0  0  0  0  0
   -5.9540   -4.4363   -0.9938 H   0  0  0  0  0  0  0  0  0  0  0  0
   -1.9114   -5.0838    0.3021 H   0  0  0  0  0  0  0  0  0  0  0  0
    0.5444   -0.6853    0.6561 H   0  0  0  0  0  0  0  0  0  0  0  0
   -0.7019    0.0042   -0.3731 H   0  0  0  0  0  0  0  0  0  0  0  0
    0.0681   -2.1096   -1.3970 H   0  0  0  0  0  0  0  0  0  0  0  0
   -0.2142   -2.9841    0.1131 H   0  0  0  0  0  0  0  0  0  0  0  0
   -1.1370   -1.6309    2.1839 H   0  0  0  0  0  0  0  0  0  0  0  0
   -1.4477    0.0942    1.9986 H   0  0  0  0  0  0  0  0  0  0  0  0
   -2.3368   -1.6387   -1.6330 H   0  0  0  0  0  0  0  0  0  0  0  0
   -2.0994   -3.3684   -1.4518 H   0  0  0  0  0  0  0  0  0  0  0  0
   -3.4883   -1.4130    1.9364 H   0  0  0  0  0  0  0  0  0  0  0  0
   -3.0916    0.2830   -0.5901 H   0  0  0  0  0  0  0  0  0  0  0  0
   -3.6564    0.8524    0.9846 H   0  0  0  0  0  0  0  0  0  0  0  0
   -4.6303   -0.3104    0.0683 H   0  0  0  0  0  0  0  0  0  0  0  0
  1  2  1  0  0  0  0
  1  3  2  0  0  0  0
  1 16  1  0  0  0  0
  2  4  2  0  0  0  0
  2 17  1  0  0  0  0
  3  5  1  0  0  0  0
  3 18  1  0  0  0  0
  4  6  1  0  0  0  0
  4 19  1  0  0  0  0
  5  6  2  0  0  0  0
  5 20  1  0  0  0  0
  6  7  1  0  0  0  0
  7 14  1  0  0  0  0
  7 15  2  0  0  0  0
  8  9  1  0  0  0  0
  8 10  1  0  0  0  0
  8 21  1  0  0  0  0
  8 22  1  0  0  0  0
  9 11  1  0  0  0  0
  9 23  1  0  0  0  0
  9 24  1  0  0  0  0
 10 12  1  0  0  0  0
 10 25  1  0  0  0  0
 10 26  1  0  0  0  0
 11 14  1  0  0  0  0
 11 27  1  0  0  0  0
 11 28  1  0  0  0  0
 12 13  1  0  0  0  0
 12 14  1  0  0  0  0
 12 29  1  0  0  0  0
 13 30  1  0  0  0  0
 13 31  1  0  0  0  0
 13 32  1  0  0  0  0
M  END
$$$$
