
  -OEChem-05262117483D

 16 16  0     0  0  0  0  0  0999 V2000
    1.9053   -1.0467   -0.1585 C   0  0  0  0  0  0  0  0  0  0  0  0
    2.9193   -1.6316    0.6140 C   0  0  0  0  0  0  0  0  0  0  0  0
    0.8135   -0.4624    0.4841 C   0  0  0  0  0  0  0  0  0  0  0  0
    2.8418   -1.6316    2.0046 C   0  0  0  0  0  0  0  0  0  0  0  0
    0.7202   -0.4539    1.8828 C   0  0  0  0  0  0  0  0  0  0  0  0
    1.7395   -1.0414    2.6453 C   0  0  0  0  0  0  0  0  0  0  0  0
    0.6576   -0.5085    4.7127 C   0  0  0  0  0  0  0  0  0  0  0  0
    1.7529   -1.0910    4.0150 O   0  0  0  0  0  0  0  0  0  0  0  0
    1.9691   -1.0485   -1.2429 H   0  0  0  0  0  0  0  0  0  0  0  0
    3.7766   -2.0910    0.1285 H   0  0  0  0  0  0  0  0  0  0  0  0
    0.0192   -0.0049   -0.1005 H   0  0  0  0  0  0  0  0  0  0  0  0
    3.6193   -2.0807    2.6158 H   0  0  0  0  0  0  0  0  0  0  0  0
   -0.1395    0.0072    2.3558 H   0  0  0  0  0  0  0  0  0  0  0  0
    0.8653   -0.6573    5.7734 H   0  0  0  0  0  0  0  0  0  0  0  0
   -0.2887   -1.0009    4.4561 H   0  0  0  0  0  0  0  0  0  0  0  0
    0.5768    0.5662    4.5064 H   0  0  0  0  0  0  0  0  0  0  0  0
  1  2  1  0  0  0  0
  1  3  2  0  0  0  0
  1  9  1  0  0  0  0
  2  4  2  0  0  0  0
  2 10  1  0  0  0  0
  3  5  1  0  0  0  0
  3 11  1  0  0  0  0
  4  6  1  0  0  0  0
  4 12  1  0  0  0  0
  5  6  2  0  0  0  0
  5 13  1  0  0  0  0
  6  8  1  0  0  0  0
  7  8  1  0  0  0  0
  7 14  1  0  0  0  0
  7 15  1  0  0  0  0
  7 16  1  0  0  0  0
M  END
$$$$
