22
0 1 C11H9NO
C                     2.126242028340    -1.072019226865     0.210193077531
C                     2.934219856148    -1.485493650208     1.275393453862
C                     0.825025102313    -0.620244221747     0.457879757465
C                     1.559320268849     2.357262160897     5.315926553942
C                     1.018544488574     2.246966310513     6.601030383161
C                     2.447704229564    -1.444323504465     2.585858682996
C                     0.329539122950    -0.575320399794     1.764836885658
C                     1.458326348392     1.284076976716     4.432352321938
C                     0.393691561956     1.044938736570     6.938808969910
C                     1.149177603434    -0.987336945214     2.816801666808
C                     0.805610415970     0.126255147127     4.889787507045
N                     0.284820965720     0.000534902908     6.106494329809
O                     0.643302203226    -0.995099948435     4.113229290364
H                     2.506281908365    -1.106924057312    -0.807152523031
H                     3.942953579157    -1.843691978993     1.087573681875
H                     0.191910602872    -0.304812550475    -0.367199696640
H                     2.056980573869     3.270538188968     4.999685394999
H                     1.077322572077     3.060716948388     7.317171469305
H                     3.056199648296    -1.764629617528     3.426604994642
H                    -0.678693776163    -0.232213940469     1.978157696843
H                     1.867549430818     1.340249396926     3.430670102224
H                    -0.043593687408     0.907793339410     7.926732296391
