27
0 1 C12H11NO2S
C                     4.552925799190    -2.227504014096     6.005663946277
C                    -1.279892306836    -4.241563876383     3.761104757060
C                     4.372845661960    -0.851593947038     6.187999685492
C                     3.826306136424    -2.901956757713     5.018444594823
C                    -1.260361063920    -3.397850600411     2.642770347894
C                    -0.861441098829    -3.771587508890     5.010126172493
C                     3.461985925826    -0.151784735436     5.392831184747
C                     2.928586272606    -2.202770530566     4.207626519464
C                    -0.814677422966    -2.080930785167     2.767667144747
C                    -0.415323754817    -2.454214030023     5.149855182132
C                     2.748006756133    -0.827445521833     4.395089864140
C                    -0.395542973096    -1.632428667013     4.022499619175
N                     1.805098386505    -0.147831432416     3.546837766439
O                     0.253480641214     0.373472764382     5.608061748859
O                    -0.450292557496     0.923031521077     3.219426555013
S                     0.217886324612     0.040571916198     4.179881551929
H                     5.256943795278    -2.770878710655     6.630390722340
H                    -1.626790029828    -5.266356508454     3.657688866595
H                     4.930478927333    -0.326223764224     6.958662825712
H                     3.965564215388    -3.969739862798     4.871812696017
H                    -1.594688065854    -3.764928983175     1.676441124098
H                    -0.881893120674    -4.427614328491     5.875812987086
H                     3.287979922749     0.908476867030     5.554571696180
H                     2.367787802540    -2.706794895351     3.426534344193
H                    -0.794159211635    -1.407474873829     1.916569782895
H                    -0.086697679517    -2.063732472903     6.107273024658
H                     2.108129001516     0.783756503150     3.257468385007
