
  -OEChem-05262117483D

 27 29  0     0  0  0  0  0  0999 V2000
    1.8621   -1.0737   -0.0983 C   0  0  0  0  0  0  0  0  0  0  0  0
    0.7201   -0.6147    0.5684 C   0  0  0  0  0  0  0  0  0  0  0  0
    4.9171   -3.8079    4.3762 C   0  0  0  0  0  0  0  0  0  0  0  0
    6.2014   -3.5236    3.9031 C   0  0  0  0  0  0  0  0  0  0  0  0
    2.9454   -1.5608    0.6322 C   0  0  0  0  0  0  0  0  0  0  0  0
    0.6887   -0.6137    1.9613 C   0  0  0  0  0  0  0  0  0  0  0  0
    3.8279   -3.1741    3.7841 C   0  0  0  0  0  0  0  0  0  0  0  0
    6.3245   -2.6248    2.8405 C   0  0  0  0  0  0  0  0  0  0  0  0
    1.1089   -0.8360    6.2161 C   0  0  0  0  0  0  0  0  0  0  0  0
    2.4328   -0.5216    6.1673 C   0  0  0  0  0  0  0  0  0  0  0  0
    2.9174   -1.6015    2.0347 C   0  0  0  0  0  0  0  0  0  0  0  0
    1.7851   -1.0844    2.7037 C   0  0  0  0  0  0  0  0  0  0  0  0
    4.0522   -2.2656    2.7348 C   0  0  0  0  0  0  0  0  0  0  0  0
    1.7071   -0.9573    4.1637 C   0  0  0  0  0  0  0  0  0  0  0  0
    5.2853   -2.0113    2.2608 N   0  0  0  0  0  0  0  0  0  0  0  0
    0.6588   -1.1095    4.9295 N   0  0  0  0  0  0  0  0  0  0  0  0
    2.8297   -0.5864    4.8557 O   0  0  0  0  0  0  0  0  0  0  0  0
    1.9032   -1.0620   -1.1843 H   0  0  0  0  0  0  0  0  0  0  0  0
   -0.1330   -0.2440    0.0065 H   0  0  0  0  0  0  0  0  0  0  0  0
    4.7664   -4.5167    5.1865 H   0  0  0  0  0  0  0  0  0  0  0  0
    7.0826   -3.9904    4.3337 H   0  0  0  0  0  0  0  0  0  0  0  0
    3.8282   -1.9381    0.1259 H   0  0  0  0  0  0  0  0  0  0  0  0
   -0.1736   -0.2291    2.4970 H   0  0  0  0  0  0  0  0  0  0  0  0
    2.8163   -3.3884    4.1149 H   0  0  0  0  0  0  0  0  0  0  0  0
    7.3058   -2.3862    2.4322 H   0  0  0  0  0  0  0  0  0  0  0  0
    0.4530   -0.8884    7.0746 H   0  0  0  0  0  0  0  0  0  0  0  0
    3.1850   -0.2425    6.8896 H   0  0  0  0  0  0  0  0  0  0  0  0
  1  2  1  0  0  0  0
  1  5  2  0  0  0  0
  1 18  1  0  0  0  0
  2  6  2  0  0  0  0
  2 19  1  0  0  0  0
  3  4  1  0  0  0  0
  3  7  2  0  0  0  0
  3 20  1  0  0  0  0
  4  8  2  0  0  0  0
  4 21  1  0  0  0  0
  5 11  1  0  0  0  0
  5 22  1  0  0  0  0
  6 12  1  0  0  0  0
  6 23  1  0  0  0  0
  7 13  1  0  0  0  0
  7 24  1  0  0  0  0
  8 15  1  0  0  0  0
  8 25  1  0  0  0  0
  9 10  2  0  0  0  0
  9 16  1  0  0  0  0
  9 26  1  0  0  0  0
 10 17  1  0  0  0  0
 10 27  1  0  0  0  0
 11 12  2  0  0  0  0
 11 13  1  0  0  0  0
 12 14  1  0  0  0  0
 13 15  2  0  0  0  0
 14 16  2  0  0  0  0
 14 17  1  0  0  0  0
M  END
$$$$
