27
0 1 C14H10N2O
C                     1.965785433114    -0.428515846339    -0.023431813427
C                     0.766142183513    -0.221550913839     0.665556666152
C                     5.334447999737    -3.537297870812     3.918242797329
C                     6.558832268352    -2.933179917094     3.616412054601
C                     3.083988288826    -0.904496009752     0.660725071839
C                     0.709120449756    -0.463262918476     2.036072300724
C                     4.165632148464    -2.964637740108     3.426152442292
C                     6.546623515089    -1.789873847027     2.814817051181
C                     2.002787593934    -1.062671210895     6.320532493621
C                     0.676758225846    -1.264206372456     6.087345697892
C                     3.037121746205    -1.187565472990     2.033765077502
C                     1.836806621467    -0.931180855413     2.736803280818
C                     4.251514223022    -1.800919463489     2.644721932280
C                     1.736787323721    -1.048250888483     4.194991069449
N                     5.428562097862    -1.235169857978     2.327993221205
N                     2.662726096768    -0.924068406779     5.107362363243
O                     0.485771370588    -1.258867450660     4.727436991874
H                     2.027621912181    -0.226887898846    -1.089613109678
H                    -0.113985734281     0.142776800493     0.142631213258
H                     5.292904651766    -4.439503839726     4.523292341068
H                     7.498107688259    -3.338842192527     3.981504641672
H                     4.017137699338    -1.079596684681     0.134750743279
H                    -0.206186819746    -0.265579796585     2.584424549254
H                     3.198589805460    -3.409942215007     3.635356720454
H                     7.479027378412    -1.295424594613     2.545408091257
H                     2.525557685690    -1.000326039067     7.265467013996
H                    -0.197766033377    -1.420430264385     6.700853901214
