23
0 1 C12H10O
C                     1.785826451006    -0.931561947673    -0.185939991656
C                     4.415071854912    -3.625344359538     6.178952289804
C                     1.627196930060     0.210557754714     0.606378926852
C                     1.983929559682    -2.173706943383     0.427820539235
C                     3.079528822511    -3.453667741625     6.558680145779
C                     4.894936935774    -2.977006691188     5.035140220488
C                     1.675138840150     0.117452538233     2.000229688884
C                     2.025522835523    -2.281538362579     1.820518483421
C                     2.225263943462    -2.649370044978     5.798961565050
C                     4.053438314054    -2.163492002847     4.271601191969
C                     1.875470451646    -1.128606320920     2.600003113578
C                     2.717006888369    -2.009482220118     4.658291490714
O                     1.844456936402    -1.170524580362     3.984460800200
H                     1.752824308971    -0.855804948777    -1.269235386910
H                     5.075749819396    -4.254771959642     6.768600871675
H                     1.471192604339     1.179959206766     0.140214635566
H                     2.099414066702    -3.068414375970    -0.178629583119
H                     2.696919226200    -3.951217316314     7.446055309518
H                     5.933270254854    -3.096856312225     4.736619555297
H                     1.558152469997     0.992668606699     2.632433500804
H                     2.172411401152    -3.245228717211     2.298033128450
H                     1.184624919898    -2.506627566919     6.074763901155
H                     4.425783835726    -1.654680208881     3.387981223178
