
  -OEChem-05262117483D

 17 17  0     0  0  0  0  0  0999 V2000
    1.8542   -1.0945   -0.1169 C   0  0  0  0  0  0  0  0  0  0  0  0
    0.8400   -0.3908    0.5416 C   0  0  0  0  0  0  0  0  0  0  0  0
    2.8197   -1.7697    0.6274 C   0  0  0  0  0  0  0  0  0  0  0  0
    0.7991   -0.3678    1.9366 C   0  0  0  0  0  0  0  0  0  0  0  0
    2.8160   -1.7616    2.0365 C   0  0  0  0  0  0  0  0  0  0  0  0
    1.7779   -1.0439    2.6605 C   0  0  0  0  0  0  0  0  0  0  0  0
    3.8786   -2.4766    2.8188 C   0  0  0  0  0  0  0  0  0  0  0  0
    4.8368   -3.3806    2.0550 C   0  0  0  0  0  0  0  0  0  0  0  0
    3.9912   -2.3445    4.0292 O   0  0  0  0  0  0  0  0  0  0  0  0
    1.6836   -0.9971    4.0010 F   0  0  0  0  0  0  0  0  0  0  0  0
    1.8904   -1.1166   -1.2021 H   0  0  0  0  0  0  0  0  0  0  0  0
    0.0798    0.1376   -0.0272 H   0  0  0  0  0  0  0  0  0  0  0  0
    3.5998   -2.3110    0.1034 H   0  0  0  0  0  0  0  0  0  0  0  0
    0.0222    0.1639    2.4775 H   0  0  0  0  0  0  0  0  0  0  0  0
    5.4648   -2.7970    1.3727 H   0  0  0  0  0  0  0  0  0  0  0  0
    4.3010   -4.1253    1.4577 H   0  0  0  0  0  0  0  0  0  0  0  0
    5.4783   -3.8854    2.7780 H   0  0  0  0  0  0  0  0  0  0  0  0
  1  2  1  0  0  0  0
  1  3  2  0  0  0  0
  1 11  1  0  0  0  0
  2  4  2  0  0  0  0
  2 12  1  0  0  0  0
  3  5  1  0  0  0  0
  3 13  1  0  0  0  0
  4  6  1  0  0  0  0
  4 14  1  0  0  0  0
  5  6  2  0  0  0  0
  5  7  1  0  0  0  0
  6 10  1  0  0  0  0
  7  8  1  0  0  0  0
  7  9  2  0  0  0  0
  8 15  1  0  0  0  0
  8 16  1  0  0  0  0
  8 17  1  0  0  0  0
M  END
$$$$
