
  -OEChem-05262117483D

 25 26  0     1  0  0  0  0  0999 V2000
    1.5757    0.3751   -3.2636 C   0  0  0  0  0  0  0  0  0  0  0  0
    1.2016   -0.2267   -4.5166 C   0  0  0  0  0  0  0  0  0  0  0  0
    0.6899   -0.0816   -2.3291 C   0  0  0  0  0  0  0  0  0  0  0  0
    0.1107   -1.0101   -4.2621 C   0  0  0  0  0  0  0  0  0  0  0  0
    0.6272   -0.7569    1.3599 C   0  0  0  0  0  0  0  0  0  0  0  0
   -0.7567   -0.1786    1.6362 C   0  0  0  0  0  0  0  0  0  0  0  0
   -0.8531    0.7423   -0.5297 C   0  0  0  0  0  0  0  0  0  0  0  0
    0.5387    0.1835   -0.8701 C   0  0  1  0  0  0  0  0  0  0  0  0
   -0.7456   -1.8883   -5.1078 C   0  0  0  0  0  0  0  0  0  0  0  0
    0.7384   -1.0416   -0.0751 N   0  0  0  0  0  0  0  0  0  0  0  0
   -0.2132   -0.9297   -2.9301 O   0  0  0  0  0  0  0  0  0  0  0  0
   -0.9785    1.0040    0.8664 O   0  0  0  0  0  0  0  0  0  0  0  0
    2.3946    1.0591   -3.0808 H   0  0  0  0  0  0  0  0  0  0  0  0
    1.6804   -0.0957   -5.4783 H   0  0  0  0  0  0  0  0  0  0  0  0
    1.3876   -0.0368    1.7122 H   0  0  0  0  0  0  0  0  0  0  0  0
    0.7540   -1.6901    1.9198 H   0  0  0  0  0  0  0  0  0  0  0  0
   -1.5242   -0.9300    1.3966 H   0  0  0  0  0  0  0  0  0  0  0  0
   -0.8576    0.1143    2.6845 H   0  0  0  0  0  0  0  0  0  0  0  0
   -1.0147    1.6946   -1.0401 H   0  0  0  0  0  0  0  0  0  0  0  0
   -1.6178    0.0226   -0.8537 H   0  0  0  0  0  0  0  0  0  0  0  0
    1.2774    0.9636   -0.6127 H   0  0  0  0  0  0  0  0  0  0  0  0
   -0.7253   -2.9246   -4.7522 H   0  0  0  0  0  0  0  0  0  0  0  0
   -1.7893   -1.5545   -5.0990 H   0  0  0  0  0  0  0  0  0  0  0  0
   -0.3870   -1.8705   -6.1396 H   0  0  0  0  0  0  0  0  0  0  0  0
    1.6526   -1.4336   -0.2900 H   0  0  0  0  0  0  0  0  0  0  0  0
  1  2  1  0  0  0  0
  1  3  2  0  0  0  0
  1 13  1  0  0  0  0
  2  4  2  0  0  0  0
  2 14  1  0  0  0  0
  3  8  1  0  0  0  0
  3 11  1  0  0  0  0
  4  9  1  0  0  0  0
  4 11  1  0  0  0  0
  5  6  1  0  0  0  0
  5 10  1  0  0  0  0
  5 15  1  0  0  0  0
  5 16  1  0  0  0  0
  6 12  1  0  0  0  0
  6 17  1  0  0  0  0
  6 18  1  0  0  0  0
  7  8  1  0  0  0  0
  7 12  1  0  0  0  0
  7 19  1  0  0  0  0
  7 20  1  0  0  0  0
  8 10  1  0  0  0  0
  8 21  1  0  0  0  0
  9 22  1  0  0  0  0
  9 23  1  0  0  0  0
  9 24  1  0  0  0  0
 10 25  1  0  0  0  0
M  END
$$$$
