
  -OEChem-05262117483D

 28 30  0     0  0  0  0  0  0999 V2000
    1.8543   -4.0492   -0.6913 C   0  0  0  0  0  0  0  0  0  0  0  0
    0.6526    1.8158    3.1074 C   0  0  0  0  0  0  0  0  0  0  0  0
    1.2630    0.9808    2.1496 C   0  0  0  0  0  0  0  0  0  0  0  0
    2.5322   -4.7697   -1.6675 C   0  0  0  0  0  0  0  0  0  0  0  0
   -0.8993   -0.0058    1.5333 C   0  0  0  0  0  0  0  0  0  0  0  0
    3.3401   -2.6779   -2.6115 C   0  0  0  0  0  0  0  0  0  0  0  0
    1.8899   -2.6438   -0.6392 C   0  0  0  0  0  0  0  0  0  0  0  0
   -0.7167    1.7068    3.2528 C   0  0  0  0  0  0  0  0  0  0  0  0
   -1.4704    0.8178    2.4835 C   0  0  0  0  0  0  0  0  0  0  0  0
    0.4958    0.1003    1.3947 C   0  0  0  0  0  0  0  0  0  0  0  0
    2.6488   -1.9858   -1.6200 C   0  0  0  0  0  0  0  0  0  0  0  0
    3.2733   -4.0699   -2.6256 C   0  0  0  0  0  0  0  0  0  0  0  0
    1.1184   -1.9971    0.4622 C   0  0  0  0  0  0  0  0  0  0  0  0
   -2.8316    1.7729    3.9788 C   0  0  0  0  0  0  0  0  0  0  0  0
    0.5110   -2.6246    1.3064 O   0  0  0  0  0  0  0  0  0  0  0  0
   -1.5546    2.4222    4.0843 O   0  0  0  0  0  0  0  0  0  0  0  0
   -2.8041    0.9415    2.8059 O   0  0  0  0  0  0  0  0  0  0  0  0
    1.1674   -0.6388    0.4078 O   0  0  0  0  0  0  0  0  0  0  0  0
    2.7487   -0.6439   -1.6472 F   0  0  0  0  0  0  0  0  0  0  0  0
    4.1352   -4.9508   -3.8656 Cl  0  0  0  0  0  0  0  0  0  0  0  0
    1.2721   -4.5634    0.0663 H   0  0  0  0  0  0  0  0  0  0  0  0
    1.2326    2.5144    3.7013 H   0  0  0  0  0  0  0  0  0  0  0  0
    2.3350    1.0181    1.9866 H   0  0  0  0  0  0  0  0  0  0  0  0
    2.4908   -5.8533   -1.6911 H   0  0  0  0  0  0  0  0  0  0  0  0
   -1.4844   -0.6988    0.9408 H   0  0  0  0  0  0  0  0  0  0  0  0
    3.9134   -2.1259   -3.3481 H   0  0  0  0  0  0  0  0  0  0  0  0
   -2.9942    1.1434    4.8644 H   0  0  0  0  0  0  0  0  0  0  0  0
   -3.6135    2.5268    3.8688 H   0  0  0  0  0  0  0  0  0  0  0  0
  1  4  1  0  0  0  0
  1  7  2  0  0  0  0
  1 21  1  0  0  0  0
  2  3  2  0  0  0  0
  2  8  1  0  0  0  0
  2 22  1  0  0  0  0
  3 10  1  0  0  0  0
  3 23  1  0  0  0  0
  4 12  2  0  0  0  0
  4 24  1  0  0  0  0
  5  9  1  0  0  0  0
  5 10  2  0  0  0  0
  5 25  1  0  0  0  0
  6 11  2  0  0  0  0
  6 12  1  0  0  0  0
  6 26  1  0  0  0  0
  7 11  1  0  0  0  0
  7 13  1  0  0  0  0
  8  9  2  0  0  0  0
  8 16  1  0  0  0  0
  9 17  1  0  0  0  0
 10 18  1  0  0  0  0
 11 19  1  0  0  0  0
 12 20  1  0  0  0  0
 13 15  2  0  0  0  0
 13 18  1  0  0  0  0
 14 16  1  0  0  0  0
 14 17  1  0  0  0  0
 14 27  1  0  0  0  0
 14 28  1  0  0  0  0
M  END
$$$$
