28
0 1 C14ClFH8O4
C                     0.050112034080     2.609626481618    -2.197865322412
C                     0.109643327257     2.836473115225     2.581469898882
C                     0.574601480803     2.075767957671     1.490151944276
C                    -0.825254527093     3.616017965749    -2.598966640634
C                    -0.819937148101     0.165960503893     2.147244209272
C                    -2.658029066928     2.427537079686    -1.523110392149
C                    -0.389257877155     1.521126877210    -1.430686210863
C                    -0.800768179904     2.233583625234     3.427669201764
C                    -1.248111294132     0.927583709822     3.216563436422
C                     0.101833671773     0.781104261678     1.282768093928
C                    -1.751261389371     1.450413789107    -1.130590269784
C                    -2.175638768292     3.516478404187    -2.249949891003
C                     0.606404703074     0.466526047411    -1.051366943196
C                    -2.107674380082     1.655132528393     5.150306427415
O                     1.408337639061     0.020266894490    -1.839020889420
O                    -1.424409592341     2.761563487797     4.539223469709
O                    -2.164961258081     0.589066783278     4.185733077106
O                     0.597572449673    -0.000854123769     0.235109778086
F                    -2.231586060641     0.378454666190    -0.462367354840
Cl                   -3.291459712710     4.768164036372    -2.747488892732
H                     1.099125906140     2.659202723772    -2.473093257822
H                     0.459041788286     3.849173603523     2.752977444676
H                     1.311891340550     2.495987607123     0.814416607394
H                    -0.471841987041     4.462265196210    -3.178156220148
H                    -1.175009420723    -0.840810574927     1.960552733059
H                    -3.708076146909     2.325035295226    -1.272033443162
H                    -1.541596621200     1.317426147875     6.028825709990
H                    -3.122993046715     1.957287217535     5.414406057132
