
  -OEChem-05262117483D

 23 24  0     1  0  0  0  0  0999 V2000
   -2.7063   -3.6661   -0.7160 C   0  0  0  0  0  0  0  0  0  0  0  0
   -3.8108   -4.4036   -0.2894 C   0  0  0  0  0  0  0  0  0  0  0  0
   -2.7760   -4.6678    1.8882 C   0  0  0  0  0  0  0  0  0  0  0  0
   -1.6209   -3.3866    0.1272 C   0  0  0  0  0  0  0  0  0  0  0  0
   -1.7013   -3.8980    1.4363 C   0  0  0  0  0  0  0  0  0  0  0  0
   -3.8239   -4.8988    1.0108 C   0  0  0  0  0  0  0  0  0  0  0  0
   -0.9058   -1.3950   -2.3788 C   0  0  0  0  0  0  0  0  0  0  0  0
   -0.5809   -1.0516   -0.1304 C   0  0  0  0  0  0  0  0  0  0  0  0
   -0.4367   -2.5739   -0.3963 C   0  0  2  0  0  0  0  0  0  0  0  0
   -0.3433   -2.5398   -1.8438 N   0  0  0  0  0  0  0  0  0  0  0  0
   -0.6417   -3.6378    2.4280 N   0  3  0  0  0  0  0  0  0  0  0  0
    0.0413   -2.6137    2.2855 O   0  5  0  0  0  0  0  0  0  0  0  0
   -1.1846   -1.1778   -3.5358 O   0  0  0  0  0  0  0  0  0  0  0  0
   -0.5070   -4.4425    3.3518 O   0  0  0  0  0  0  0  0  0  0  0  0
   -1.1133   -0.5074   -1.3560 O   0  0  0  0  0  0  0  0  0  0  0  0
   -4.8823   -5.6229    1.4323 F   0  0  0  0  0  0  0  0  0  0  0  0
   -2.6940   -3.2947   -1.7349 H   0  0  0  0  0  0  0  0  0  0  0  0
   -4.6494   -4.5984   -0.9507 H   0  0  0  0  0  0  0  0  0  0  0  0
   -2.7894   -5.0627    2.8971 H   0  0  0  0  0  0  0  0  0  0  0  0
   -1.2715   -0.8199    0.6780 H   0  0  0  0  0  0  0  0  0  0  0  0
    0.3926   -0.5967    0.0684 H   0  0  0  0  0  0  0  0  0  0  0  0
    0.4910   -2.9406    0.0403 H   0  0  0  0  0  0  0  0  0  0  0  0
   -0.3138   -3.3714   -2.4187 H   0  0  0  0  0  0  0  0  0  0  0  0
  1  2  1  0  0  0  0
  1  4  2  0  0  0  0
  1 17  1  0  0  0  0
  2  6  2  0  0  0  0
  2 18  1  0  0  0  0
  3  5  2  0  0  0  0
  3  6  1  0  0  0  0
  3 19  1  0  0  0  0
  4  5  1  0  0  0  0
  4  9  1  0  0  0  0
  5 11  1  0  0  0  0
  6 16  1  0  0  0  0
  7 10  1  0  0  0  0
  7 13  2  0  0  0  0
  7 15  1  0  0  0  0
  8  9  1  0  0  0  0
  8 15  1  0  0  0  0
  8 20  1  0  0  0  0
  8 21  1  0  0  0  0
  9 10  1  0  0  0  0
  9 22  1  0  0  0  0
 10 23  1  0  0  0  0
 11 12  1  0  0  0  0
 11 14  2  0  0  0  0
M  CHG  2  11   1  12  -1
M  END
$$$$
