25
0 1 BrC10F2H9O3
C                    -1.506774390024    -1.462547732588    -1.974454218384
C                    -3.181282667902    -1.257507639857    -0.215360985128
C                    -1.825008488553    -0.186374133932    -2.461476193474
C                    -3.500826707572    -0.003238596280    -0.724167503198
C                    -2.855312628275     0.529855621146    -1.836978196594
C                    -2.178742202129    -1.974538320518    -0.868502338984
C                     1.074186900765     0.890958608932    -0.723876461023
C                     1.746600343582     0.152040693161    -1.879103851168
C                     0.482212706764     1.887906597648    -2.723620375811
C                    -0.679445742271     1.589477210235    -3.668545746713
O                     0.069653236110     1.674352355812    -1.380567281604
O                     1.622093105824     1.076310711166    -2.966677998719
O                    -1.152088845400     0.234514432557    -3.572384050289
F                    -4.472932445675     0.725689993659    -0.139383224083
F                    -3.238134202393     1.743851257389    -2.288226744472
Br                   -1.695095906675    -3.707768493862    -0.210473091652
H                    -0.733557318876    -2.028616860589    -2.480386737980
H                    -3.708389769074    -1.641914650065     0.650046593234
H                     0.575673181073     0.228393217507    -0.012624199707
H                     1.776205353136     1.546999356476    -0.193982178191
H                     2.809229146215    -0.040327753833    -1.714907020833
H                     1.234234817723    -0.786884369099    -2.113562132731
H                     0.786473166655     2.935682443749    -2.872100547737
H                    -0.326855718233     1.685820366815    -4.697071311246
H                    -1.482253508731     2.308046976354    -3.494415767999
