28
0 1 C14ClFH8O4
C                     2.159035028958     0.432476235043    -2.072558778353
C                    -0.379529107598     2.185430726899     3.395720529844
C                     0.392710430365     1.908475207817     2.249047051181
C                     2.814300939355     0.388208979130    -3.299033820835
C                    -0.968640468765    -0.066671534199     1.729025950365
C                     4.066946906467    -1.553488016306    -2.537301403312
C                     2.428365998744    -0.498888017316    -1.052523973292
C                    -1.419176511279     1.320119987967     3.675970446943
C                    -1.704341135264     0.221851809292     2.861719392639
C                     0.092789461731     0.811359312519     1.449707924918
C                     3.393619389395    -1.483680075239    -1.320787926026
C                     3.767418677283    -0.611007735166    -3.519580917255
C                     1.717935306215    -0.446017345395     0.254791746547
C                    -3.055588379825     0.139378128106     4.641487309636
O                     1.858214474941    -1.216329207198     1.176694601426
O                    -2.337001875830     1.381494172531     4.704935715405
O                    -2.806080806400    -0.444299816089     3.350703853166
O                     0.850118458097     0.622406646209     0.283362717373
F                     3.709215460151    -2.407507949808    -0.400021802004
Cl                    4.602435327973    -0.684910385989    -5.053687871139
H                     1.417926409495     1.200911724417    -1.888210842794
H                    -0.166704098417     3.040058875520     4.029317369021
H                     1.228110872118     2.546472081416     1.979766443190
H                     2.593133287403     1.113661589184    -4.074419872951
H                    -1.184218178419    -0.920264638654     1.096500478077
H                     4.804600808385    -2.332177420118    -2.697095040037
H                    -2.683057900134    -0.537631149992     5.422244759154
H                    -4.124473999168     0.333290872955     4.749113222862
