
  -OEChem-05262117483D

 38 40  0     0  0  0  0  0  0999 V2000
   -3.3167    1.9723   -5.3707 C   0  0  0  0  0  0  0  0  0  0  0  0
    0.5403   -0.1097   -0.5772 C   0  0  0  0  0  0  0  0  0  0  0  0
   -0.8408   -0.0075   -0.4501 C   0  0  0  0  0  0  0  0  0  0  0  0
   -2.8389   -0.1433   -4.9019 C   0  0  0  0  0  0  0  0  0  0  0  0
   -1.6059    0.3998   -4.6190 C   0  0  0  0  0  0  0  0  0  0  0  0
   -0.2302   -0.1662   -2.5958 C   0  0  0  0  0  0  0  0  0  0  0  0
    1.6180   -0.0664    0.4457 C   0  0  0  0  0  0  0  0  0  0  0  0
   -1.8127    0.0927    0.6874 C   0  0  0  0  0  0  0  0  0  0  0  0
   -0.0226   -0.5579    2.3481 C   0  0  0  0  0  0  0  0  0  0  0  0
   -1.2071    0.4005    2.0710 C   0  0  0  0  0  0  0  0  0  0  0  0
   -3.2277   -1.5914   -4.7976 C   0  0  0  0  0  0  0  0  0  0  0  0
   -2.2900    0.1247    3.1294 C   0  0  0  0  0  0  0  0  0  0  0  0
   -0.7623    1.8685    2.1589 C   0  0  0  0  0  0  0  0  0  0  0  0
   -0.3709   -0.2768   -4.0893 C   0  0  0  0  0  0  0  0  0  0  0  0
   -3.7978    0.7633   -5.3294 N   0  0  0  0  0  0  0  0  0  0  0  0
    0.8915   -0.2010   -1.9194 N   0  0  0  0  0  0  0  0  0  0  0  0
   -1.3102   -0.0506   -1.7494 N   0  0  0  0  0  0  0  0  0  0  0  0
    1.2537   -0.1638    1.7713 N   0  0  0  0  0  0  0  0  0  0  0  0
    2.7993    0.0859    0.1384 O   0  0  0  0  0  0  0  0  0  0  0  0
   -1.6497    2.1239   -4.8895 S   0  0  0  0  0  0  0  0  0  0  0  0
   -3.8882    2.8409   -5.6816 H   0  0  0  0  0  0  0  0  0  0  0  0
   -2.5609    0.8618    0.4537 H   0  0  0  0  0  0  0  0  0  0  0  0
   -2.3648   -0.8557    0.7523 H   0  0  0  0  0  0  0  0  0  0  0  0
    0.1375   -0.6028    3.4291 H   0  0  0  0  0  0  0  0  0  0  0  0
   -0.3026   -1.5720    2.0281 H   0  0  0  0  0  0  0  0  0  0  0  0
   -4.1098   -1.7027   -4.1587 H   0  0  0  0  0  0  0  0  0  0  0  0
   -3.4931   -1.9853   -5.7842 H   0  0  0  0  0  0  0  0  0  0  0  0
   -2.4240   -2.2051   -4.3861 H   0  0  0  0  0  0  0  0  0  0  0  0
   -1.9508    0.4321    4.1244 H   0  0  0  0  0  0  0  0  0  0  0  0
   -2.5439   -0.9412    3.1736 H   0  0  0  0  0  0  0  0  0  0  0  0
   -3.2089    0.6774    2.9049 H   0  0  0  0  0  0  0  0  0  0  0  0
   -0.2667    2.0678    3.1152 H   0  0  0  0  0  0  0  0  0  0  0  0
   -1.6312    2.5322    2.0859 H   0  0  0  0  0  0  0  0  0  0  0  0
   -0.0633    2.1327    1.3625 H   0  0  0  0  0  0  0  0  0  0  0  0
   -0.3947   -1.3338   -4.3762 H   0  0  0  0  0  0  0  0  0  0  0  0
    0.5371    0.1373   -4.5347 H   0  0  0  0  0  0  0  0  0  0  0  0
   -2.2759    0.0547   -2.0386 H   0  0  0  0  0  0  0  0  0  0  0  0
    2.0577   -0.1300    2.3858 H   0  0  0  0  0  0  0  0  0  0  0  0
  1 15  2  0  0  0  0
  1 20  1  0  0  0  0
  1 21  1  0  0  0  0
  2  3  2  0  0  0  0
  2  7  1  0  0  0  0
  2 16  1  0  0  0  0
  3  8  1  0  0  0  0
  3 17  1  0  0  0  0
  4  5  2  0  0  0  0
  4 11  1  0  0  0  0
  4 15  1  0  0  0  0
  5 14  1  0  0  0  0
  5 20  1  0  0  0  0
  6 14  1  0  0  0  0
  6 16  2  0  0  0  0
  6 17  1  0  0  0  0
  7 18  1  0  0  0  0
  7 19  2  0  0  0  0
  8 10  1  0  0  0  0
  8 22  1  0  0  0  0
  8 23  1  0  0  0  0
  9 10  1  0  0  0  0
  9 18  1  0  0  0  0
  9 24  1  0  0  0  0
  9 25  1  0  0  0  0
 10 12  1  0  0  0  0
 10 13  1  0  0  0  0
 11 26  1  0  0  0  0
 11 27  1  0  0  0  0
 11 28  1  0  0  0  0
 12 29  1  0  0  0  0
 12 30  1  0  0  0  0
 12 31  1  0  0  0  0
 13 32  1  0  0  0  0
 13 33  1  0  0  0  0
 13 34  1  0  0  0  0
 14 35  1  0  0  0  0
 14 36  1  0  0  0  0
 17 37  1  0  0  0  0
 18 38  1  0  0  0  0
M  END
$$$$
