
  -OEChem-05262117483D

 18 19  0     0  0  0  0  0  0999 V2000
    0.1742   -0.4741   -1.0805 C   0  0  0  0  0  0  0  0  0  0  0  0
   -0.6615   -1.5049   -1.5011 C   0  0  0  0  0  0  0  0  0  0  0  0
    1.4924   -0.6196   -3.1403 C   0  0  0  0  0  0  0  0  0  0  0  0
   -0.1434   -3.2342   -4.8934 C   0  0  0  0  0  0  0  0  0  0  0  0
    0.6541   -1.6595   -3.5715 C   0  0  0  0  0  0  0  0  0  0  0  0
    1.2332   -0.0548   -1.9021 C   0  0  0  0  0  0  0  0  0  0  0  0
   -0.4150   -2.0940   -2.7470 C   0  0  0  0  0  0  0  0  0  0  0  0
    3.1192    0.7432   -0.7340 C   0  0  0  0  0  0  0  0  0  0  0  0
    0.7769   -2.3301   -4.7823 N   0  0  0  0  0  0  0  0  0  0  0  0
    2.0203    1.0355   -1.4735 O   0  0  0  0  0  0  0  0  0  0  0  0
    2.8159    0.1024    0.4206 F   0  0  0  0  0  0  0  0  0  0  0  0
    3.7251    1.8962   -0.4287 F   0  0  0  0  0  0  0  0  0  0  0  0
    4.0011   -0.0415   -1.3950 F   0  0  0  0  0  0  0  0  0  0  0  0
   -1.2748   -3.3895   -3.5493 S   0  0  0  0  0  0  0  0  0  0  0  0
    0.0191    0.0146   -0.1245 H   0  0  0  0  0  0  0  0  0  0  0  0
   -1.4829   -1.8345   -0.8723 H   0  0  0  0  0  0  0  0  0  0  0  0
    2.3119   -0.2725   -3.7601 H   0  0  0  0  0  0  0  0  0  0  0  0
   -0.2452   -3.8847   -5.7567 H   0  0  0  0  0  0  0  0  0  0  0  0
  1  2  1  0  0  0  0
  1  6  2  0  0  0  0
  1 15  1  0  0  0  0
  2  7  2  0  0  0  0
  2 16  1  0  0  0  0
  3  5  2  0  0  0  0
  3  6  1  0  0  0  0
  3 17  1  0  0  0  0
  4  9  2  0  0  0  0
  4 14  1  0  0  0  0
  4 18  1  0  0  0  0
  5  7  1  0  0  0  0
  5  9  1  0  0  0  0
  6 10  1  0  0  0  0
  7 14  1  0  0  0  0
  8 10  1  0  0  0  0
  8 11  1  0  0  0  0
  8 12  1  0  0  0  0
  8 13  1  0  0  0  0
M  END
$$$$
