23
0 1 C9FH7N2O4
C                    -1.007931246936    -2.375885060547    -1.849912986282
C                    -2.040130190329    -3.297146997156    -1.666588410655
C                    -0.883165760115    -4.159778263157     0.288198830859
C                     0.116630360892    -2.331986963948    -1.013973397619
C                     0.144721341530    -3.251898382106     0.044454420600
C                    -1.958451629653    -4.175788948300    -0.591783960085
C                     3.118687936101    -0.416490193683    -0.286428659004
C                     2.453091417613    -1.808716339344    -1.994352085854
C                     1.177280950943    -1.282253924183    -1.279842505968
N                     1.772508341222    -0.705849414913    -0.085586751340
N                     1.287047973373    -3.328472457074     0.982287896110
O                     2.397750170757    -3.562292064078     0.502105420049
O                     3.830996488047     0.273558958113     0.401151791145
O                     1.034370152197    -3.203191810947     2.180184104192
O                     3.535860466755    -1.052343888995    -1.426229655023
F                    -2.954908817090    -5.062907741555    -0.384534997009
H                    -1.080999432923    -1.659822800640    -2.664480419765
H                    -2.901168712303    -3.326945674986    -2.326509619977
H                    -0.845116167092    -4.837514228569     1.134178604575
H                     2.618623933561    -2.867227455347    -1.793933128367
H                     2.428451619617    -1.624218106873    -3.069622349955
H                     0.712291803488    -0.503151957943    -1.898623309307
H                     1.257500935181    -0.043370940845     0.481098772860
