
  -OEChem-05262117483D

 28 30  0     0  0  0  0  0  0999 V2000
    0.3580   -1.2839   -2.6478 C   0  0  0  0  0  0  0  0  0  0  0  0
    0.7147    1.3970    3.0170 C   0  0  0  0  0  0  0  0  0  0  0  0
    0.8519    0.9033    1.7035 C   0  0  0  0  0  0  0  0  0  0  0  0
    0.6113   -1.9840   -3.8231 C   0  0  0  0  0  0  0  0  0  0  0  0
   -1.5795    0.6596    1.4713 C   0  0  0  0  0  0  0  0  0  0  0  0
   -0.1881   -0.0780   -5.1068 C   0  0  0  0  0  0  0  0  0  0  0  0
   -0.1692    0.0208   -2.6590 C   0  0  0  0  0  0  0  0  0  0  0  0
   -0.5694    1.5132    3.5127 C   0  0  0  0  0  0  0  0  0  0  0  0
   -1.6872    1.1532    2.7566 C   0  0  0  0  0  0  0  0  0  0  0  0
   -0.2723    0.5487    0.9666 C   0  0  0  0  0  0  0  0  0  0  0  0
   -0.4317    0.5963   -3.9134 C   0  0  0  0  0  0  0  0  0  0  0  0
    0.3334   -1.3692   -5.0480 C   0  0  0  0  0  0  0  0  0  0  0  0
   -0.4413    0.7595   -1.3953 C   0  0  0  0  0  0  0  0  0  0  0  0
   -2.4033    2.0540    4.6736 C   0  0  0  0  0  0  0  0  0  0  0  0
   -0.9184    1.8672   -1.3030 O   0  0  0  0  0  0  0  0  0  0  0  0
   -0.9750    1.9318    4.7638 O   0  0  0  0  0  0  0  0  0  0  0  0
   -2.8301    1.3351    3.5032 O   0  0  0  0  0  0  0  0  0  0  0  0
   -0.0735   -0.0019   -0.3089 O   0  0  0  0  0  0  0  0  0  0  0  0
   -0.9333    1.8372   -4.0103 F   0  0  0  0  0  0  0  0  0  0  0  0
    0.6439   -2.2309   -6.5371 Cl  0  0  0  0  0  0  0  0  0  0  0  0
    0.5680   -1.7482   -1.6917 H   0  0  0  0  0  0  0  0  0  0  0  0
    1.5792    1.6731    3.6116 H   0  0  0  0  0  0  0  0  0  0  0  0
    1.8339    0.7963    1.2545 H   0  0  0  0  0  0  0  0  0  0  0  0
    1.0168   -2.9896   -3.7954 H   0  0  0  0  0  0  0  0  0  0  0  0
   -2.4447    0.3828    0.8797 H   0  0  0  0  0  0  0  0  0  0  0  0
   -0.4067    0.4087   -6.0509 H   0  0  0  0  0  0  0  0  0  0  0  0
   -2.8617    1.6078    5.5582 H   0  0  0  0  0  0  0  0  0  0  0  0
   -2.6725    3.1135    4.5650 H   0  0  0  0  0  0  0  0  0  0  0  0
  1  4  1  0  0  0  0
  1  7  2  0  0  0  0
  1 21  1  0  0  0  0
  2  3  2  0  0  0  0
  2  8  1  0  0  0  0
  2 22  1  0  0  0  0
  3 10  1  0  0  0  0
  3 23  1  0  0  0  0
  4 12  2  0  0  0  0
  4 24  1  0  0  0  0
  5  9  1  0  0  0  0
  5 10  2  0  0  0  0
  5 25  1  0  0  0  0
  6 11  2  0  0  0  0
  6 12  1  0  0  0  0
  6 26  1  0  0  0  0
  7 11  1  0  0  0  0
  7 13  1  0  0  0  0
  8  9  2  0  0  0  0
  8 16  1  0  0  0  0
  9 17  1  0  0  0  0
 10 18  1  0  0  0  0
 11 19  1  0  0  0  0
 12 20  1  0  0  0  0
 13 15  2  0  0  0  0
 13 18  1  0  0  0  0
 14 16  1  0  0  0  0
 14 17  1  0  0  0  0
 14 27  1  0  0  0  0
 14 28  1  0  0  0  0
M  END
$$$$
