23
0 1 C9FH7N2O4
C                    -2.706313164169    -3.666077320237    -0.715982851574
C                    -3.810815611313    -4.403596546555    -0.289439762001
C                    -2.775992308795    -4.667813669488     1.888222426483
C                    -1.620912358005    -3.386562763665     0.127240051752
C                    -1.701346410301    -3.898017236871     1.436254451603
C                    -3.823913710379    -4.898802437712     1.010793693471
C                    -0.905780677391    -1.394985296804    -2.378762916722
C                    -0.580901996967    -1.051571734776    -0.130351206284
C                    -0.436730200679    -2.573901606415    -0.396312359717
N                    -0.343348367395    -2.539824144537    -1.843810435312
N                    -0.641680947130    -3.637800857695     2.427951176729
O                     0.041296968354    -2.613732790937     2.285469101484
O                    -1.184573002322    -1.177788066755    -3.535830033773
O                    -0.506967532011    -4.442459643704     3.351761900665
O                    -1.113274506638    -0.507390487480    -1.356025397267
F                    -4.882289510479    -5.622926363166     1.432314647893
H                    -2.694048598585    -3.294715830047    -1.734900706422
H                    -4.649388713865    -4.598362827785    -0.950727640263
H                    -2.789438564132    -5.062667421017     2.897093359851
H                    -1.271464985127    -0.819859951730     0.677988875076
H                     0.392609241098    -0.596664370995     0.068426777964
H                     0.491028920805    -2.940594081406     0.040250361666
H                    -0.313785480346    -3.371399439406    -2.418665598377
