18   
torsion grid (-165,)
C        0.5840116510    2.3260358643    4.7845758886
C        4.9089265730   -2.3248689928    6.7739799318
C        5.2166582445   -2.4468358644    5.4135109303
C        3.7802031187   -1.5955917480    7.1575696580
C        4.4148014870   -1.8302166718    4.4550790381
C        2.9840496441   -0.9577863555    6.2017709271
C        3.3132158075   -1.0363668095    4.8301706212
C        1.6892202713    0.4134342331    3.8288510985
N       -0.1764387708    3.2047526431    4.6719701370
N        2.5477136365   -0.5220871116    3.7665743113
N        1.4353534123    1.2928879511    4.9069008152
H        5.5257701472   -2.8133505700    7.5231761799
H        6.0715137298   -3.0397080302    5.0990283212
H        3.5042009406   -1.5322773725    8.2070134918
H        4.6255525442   -1.9374444797    3.3952525897
H        2.0681801017   -0.4784335177    6.5319085615
H        1.0785458995    0.6439056321    2.9559325604
H        2.1061984843    1.3313779339    5.6678460912
18   
torsion grid (-150,)
C        0.8004207577    2.3937637865    4.7911650270
C        4.9197305193   -2.2293626120    6.7768917305
C        5.2551962812   -2.3050166644    5.4193349813
C        3.7104025967   -1.6379364916    7.1529384675
C        4.3971794354   -1.7821893228    4.4528115442
C        2.8568661767   -1.0912493826    6.1899784431
C        3.2073574226   -1.1287934873    4.8237737626
C        1.6098292418    0.3290204581    3.8464864487
N        0.1283443502    3.3447487456    4.7049319210
N        2.3733232595   -0.6859372306    3.7770775409
N        1.5495199346    1.2830778864    4.8843728345
H        5.5815889780   -2.6481553877    7.5297896832
H        6.1783521940   -2.7898689439    5.1127454923
H        3.4192554942   -1.6110717613    8.1998805275
H        4.6318926364   -1.8590470361    3.3952751540
H        1.8903209702   -0.7029915540    6.4989674058
H        0.9355748455    0.5611199184    3.0226763251
H        2.2543137564    1.2462787882    5.6153875278
18   
torsion grid (-135,)
C        1.0061257022    2.4348328131    4.7575287508
C        4.9200014329   -2.1451750359    6.7729075629
C        5.2634119945   -2.1603889161    5.4154046687
C        3.6555169630   -1.6882946013    7.1562238070
C        4.3579288017   -1.7174249511    4.4508961582
C        2.7492436436   -1.2237767918    6.1982258973
C        3.1026993369   -1.2142012732    4.8341762555
C        1.5482426145    0.2615461626    3.8641692787
N        0.4177072395    3.4403297795    4.6772402044
N        2.2057752460   -0.8262572631    3.8143781064
N        1.6615708697    1.2671371304    4.8435664285
H        5.6228130406   -2.5023580340    7.5203907113
H        6.2360175535   -2.5334163380    5.1052687908
H        3.3654975034   -1.7007849018    8.2037289150
H        4.6058592322   -1.7471617462    3.3938571950
H        1.7514814951   -0.9165365316    6.5016759550
H        0.8306692589    0.5065553437    3.0820529670
H        2.3725384862    1.1632251383    5.5626928001
18   
torsion grid (-120,)
C        1.2032288790    2.4631011735    4.7132501368
C        4.9185964740   -2.0870564517    6.7717278239
C        5.2562275437   -2.0201202390    5.4145821366
C        3.6182154832   -1.7660670296    7.1733480099
C        4.3079257458   -1.6335518362    4.4657395988
C        2.6654523046   -1.3638597391    6.2320825667
C        3.0088692296   -1.2840001922    4.8695961272
C        1.5101252324    0.2156212692    3.8893142498
N        0.6735879846    3.5014807071    4.6423823640
N        2.0563225357   -0.9326437989    3.8837604925
N        1.7986205810    1.2633355770    4.7819476945
H        5.6571804870   -2.3976657041    7.5053591905
H        6.2610675178   -2.2791901678    5.0912583909
H        3.3387598516   -1.8329294719    8.2216546540
H        4.5568754194   -1.5960743643    3.4090972116
H        1.6470337665   -1.1426823567    6.5422658608
H        0.7572441817    0.4755484445    3.1463363905
H        2.5072302272    1.1081736681    5.4943577439
18   
torsion grid (-105,)
C        1.3914166626    2.4907650818    4.6041554879
C        4.9188060089   -2.0463481145    6.7653726415
C        5.2327941818   -1.8652892608    5.4134159017
C        3.5979727488   -1.8770917732    7.1932684875
C        4.2400075500   -1.5167718086    4.4944397806
C        2.5983562612   -1.5208406421    6.2826778823
C        2.9161311433   -1.3343775157    4.9259546375
C        1.4594507465    0.1753782386    3.9234602531
N        0.9426788995    3.5633420573    4.4953437900
N        1.9084144609   -1.0121712118    3.9822294371
N        1.8940992190    1.2523067980    4.7152343245
H        5.6931261742   -2.3234970092    7.4751626396
H        6.2550911634   -2.0001914762    5.0697456864
H        3.3404284608   -2.0245314216    8.2389319472
H        4.4749307893   -1.3876481833    3.4416487053
H        1.5681611128   -1.4044137870    6.6093848284
H        0.6776203475    0.4430707447    3.2139301500
H        2.6231709396    1.0777723067    5.4022111508
18   
torsion grid (-90,)
C        1.5594591372    2.5206533874    4.4453386919
C        4.9192570705   -2.0342207449    6.7608042011
C        5.1946285062   -1.7156336813    5.4265380501
C        3.5952406162   -2.0180048528    7.2130203917
C        4.1595479342   -1.3789124460    4.5494952430
C        2.5527675170   -1.6833909637    6.3441197754
C        2.8312335684   -1.3574555587    5.0063764983
C        1.4122349839    0.1580871387    3.9675621507
N        1.1844174488    3.6130454173    4.2733241505
N        1.7731628475   -1.0516303864    4.1121598799
N        1.9782737072    1.2600831490    4.6310055603
H        5.7262213220   -2.2980406330    7.4385914397
H        6.2189247678   -1.7307199270    5.0631806568
H        3.3695609500   -2.2690944724    8.2462031514
H        4.3670176975   -1.1428295839    3.5092707888
H        1.5217259681   -1.6812964710    6.6872000066
H        0.6034746531    0.4243459506    3.2883446678
H        2.7393505282    1.0859384537    5.2824665736
18   
torsion grid (-75,)
C        1.6974072976    2.5450528642    4.2538636255
C        4.9273140753   -2.0484727892    6.7550825838
C        5.1534170060   -1.5821182816    5.4560122125
C        3.6138881277   -2.1754110378    7.2222052286
C        4.0793642962   -1.2348015366    4.6306847456
C        2.5334725963   -1.8394766584    6.4030792797
C        2.7609768873   -1.3578081577    5.1036648314
C        1.3725630949    0.1639596386    4.0228497613
N        1.3782788858    3.6382993345    3.9957704162
N        1.6575057801   -1.0500063859    4.2690613851
N        2.0499030488    1.2826394259    4.5381782976
H        5.7640389028   -2.3175756120    7.3935683795
H        6.1686430222   -1.4897092023    5.0788570014
H        3.4276010143   -2.5430178772    8.2279636809
H        4.2516945043   -0.8886686552    3.6146858909
H        1.5112945988   -1.9484383629    6.7544684919
H        0.5377128703    0.4211214484    3.3722761092
H        2.8416814734    1.1208980521    5.1553240216
18   
torsion grid (-60,)
C        1.7751479294    2.5640110974    4.0547172703
C        4.9394900112   -2.0850870013    6.7440263287
C        5.1166952873   -1.4761549244    5.4977898645
C        3.6428865968   -2.3311688716    7.2116048001
C        4.0105390202   -1.0976697622    4.7306192869
C        2.5326606801   -1.9713889037    6.4457097195
C        2.7067249609   -1.3374202751    5.2043519472
C        1.3354669637    0.1912792106    4.0838155267
N        1.4786340257    3.6422593693    3.7182058542
N        1.5615602806   -1.0076422957    4.4425264749
N        2.1046415834    1.3181168616    4.4262228852
H        5.8008923792   -2.3754331571    7.3389106401
H        6.1184237128   -1.2970837348    5.1156980827
H        3.4948195669   -2.8135002718    8.1743036281
H        4.1519804847   -0.6524876088    3.7486977587
H        1.5237233636   -2.1733027964    6.7936632751
H        0.4670763575    0.4317711273    3.4718216742
H        2.9144372354    1.1851075039    5.0263995050
18   
torsion grid (-45,)
C        1.8187397812    2.5725791799    3.8505133811
C        4.9503128248   -2.1467647729    6.7386011964
C        5.0970675734   -1.4175950116    5.5548668526
C        3.6653107001   -2.4692675010    7.1921911688
C        3.9734256414   -0.9887476392    4.8417584689
C        2.5391189824   -2.0643209010    6.4754433475
C        2.6785902101   -1.3054054633    5.3002182333
C        1.3147562948    0.2333037561    4.1437811799
N        1.5172264183    3.6257791058    3.4460635972
N        1.4998605768   -0.9309527391    4.6212281527
N        2.1579846019    1.3520582450    4.2933560735
H        5.8258181516   -2.4726994627    7.2931393334
H        6.0894862491   -1.1830223769    5.1785162722
H        3.5403950489   -3.0475686818    8.1039255621
H        4.1030147449   -0.4667543542    3.8970247242
H        1.5387252698   -2.3232710190    6.8096572036
H        0.4087644908    0.4571879468    3.5817349043
H        2.9738250900    1.2663465128    4.8935763985
18   
torsion grid (-30,)
C        1.8098420536    2.5679194924    3.6527338059
C        4.9598591811   -2.2191922249    6.7305511450
C        5.0914891868   -1.3780988742    5.6219411421
C        3.6807842407   -2.5957787730    7.1580839515
C        3.9608879834   -0.8870622930    4.9622704093
C        2.5491887253   -2.1296722807    6.4902284169
C        2.6682344491   -1.2587724070    5.3910129399
C        1.2864922733    0.2866231909    4.2183666501
N        1.4858659207    3.5865690477    3.1829235674
N        1.4631964628   -0.8286018783    4.8033148273
N        2.1772107290    1.3812049603    4.1645399137
H        5.8422576509   -2.5895436730    7.2448775406
H        6.0794647063   -1.1022804814    5.2622211059
H        3.5656279460   -3.2613072748    8.0095897854
H        4.0942934284   -0.2947658699    4.0615294844
H        1.5522169056   -2.4246106447    6.8037751866
H        0.3373591246    0.4966278685    3.7258359321
H        3.0045804506    1.3584487017    4.7538320454
18   
torsion grid (-15,)
C        1.7840088281    2.5350809198    3.4354042685
C        4.9728705530   -2.3110733163    6.7095618513
C        5.1054682142   -1.3551563346    5.6987523766
C        3.6931291153   -2.7235235306    7.0995520268
C        3.9777191120   -0.7874536705    5.0985600333
C        2.5652841163   -2.1763357953    6.4909421426
C        2.6814442186   -1.1958497126    5.4857267883
C        1.2672922894    0.3575004874    4.3177153431
N        1.4339234686    3.4976780683    2.8752102293
N        1.4607961887   -0.7023628012    4.9917380379
N        2.1786746399    1.4073474863    4.0525970292
H        5.8550793801   -2.7392066675    7.1773499334
H        6.0942045883   -1.0473368772    5.3684108930
H        3.5751214846   -3.4753977027    7.8754075535
H        4.1288942430   -0.1127871865    4.2623742700
H        1.5661714834   -2.4897792099    6.7780048758
H        0.2768319735    0.5621781172    3.9108265091
H        3.0312701860    1.4560754205    4.6009432850
18   
torsion grid (0,)
C        1.7253439960    2.3772419731    3.0888769450
C        4.9796762897   -2.4438047232    6.6338238626
C        5.1302494494   -1.2631912584    5.9017875668
C        3.6921697024   -2.9175242509    6.9106740881
C        4.0139568848   -0.5649626026    5.4327410147
C        2.5765767497   -2.2211014806    6.4513513236
C        2.7078763601   -1.0311681928    5.7059027758
C        1.2545580090    0.5474658066    4.5767304364
N        1.3339650515    3.2693600115    2.4456620835
N        1.4843892379   -0.4800308710    5.2867954697
N        2.1622308204    1.3625137674    3.8565949698
H        5.8536504993   -2.9824976633    6.9894551347
H        6.1241911711   -0.8758071055    5.6936973893
H        3.5582730494   -3.8311891205    7.4836775793
H        4.1968590910    0.3765473148    4.9284821307
H        1.5711705715   -2.5774031148    6.6533830426
H        0.2243714467    0.8778712106    4.4393278092
H        3.0917145261    1.0121925390    3.6606278021
18   
torsion grid (15,)
C        1.7963550304    2.1875331104    2.9460102528
C        4.9746518468   -2.4430463754    6.5268601052
C        5.1024810461   -1.1739104661    5.9558149118
C        3.6963963689   -2.9627443029    6.7634812416
C        3.9717241898   -0.4366042186    5.5923751438
C        2.5647744450   -2.2245792792    6.4221856316
C        2.6771639800   -0.9530598405    5.8257475558
C        1.2641979700    0.6385208527    4.7083833148
N        1.4502536254    3.0248680983    2.2097783017
N        1.4548690217   -0.3414212247    5.4948215581
N        2.1860238952    1.2436913959    3.8211966350
H        5.8590279847   -3.0134901307    6.7968406664
H        6.0892004918   -0.7481720152    5.7926443252
H        3.5822466992   -3.9430393319    7.2186312471
H        4.1171877380    0.5759827568    5.2307742828
H        1.5668018137   -2.6115055654    6.6044961860
H        0.2690805819    1.0761505588    4.6265182958
H        3.0513341046    0.7544396450    3.6166282084
18   
torsion grid (30,)
C        1.8271937171    1.9944234748    2.8458315662
C        4.9634826749   -2.4328269310    6.4340687475
C        5.0869964382   -1.1089927751    6.0028590633
C        3.6871925876   -2.9765925900    6.6240620485
C        3.9513895741   -0.3405683788    5.7300770997
C        2.5496531225   -2.2091037529    6.3776991819
C        2.6618782197   -0.8846253485    5.9150294218
C        1.2817000945    0.7095342247    4.8074739664
N        1.5087707069    2.7662023860    2.0295676345
N        1.4525316490   -0.2046857715    5.6747261290
N        2.1874931324    1.1290410282    3.8084154314
H        5.8497494516   -3.0281855906    6.6350646723
H        6.0719743941   -0.6659628232    5.8799108162
H        3.5785716718   -4.0000254296    6.9733637211
H        4.0761955251    0.7057153218    5.4661667982
H        1.5544897718   -2.6148828942    6.5335753932
H        0.3266608427    1.2312098347    4.7500543870
H        3.0245520218    0.5743286753    3.6535297079
18   
torsion grid (45,)
C        1.8257397167    1.8069267281    2.7783663233
C        4.9486766681   -2.4175423709    6.3569597939
C        5.0837156716   -1.0587612731    6.0568054000
C        3.6682680656   -2.9683116154    6.4909340847
C        3.9527561424   -0.2596053753    5.8641690848
C        2.5349965245   -2.1725295409    6.3216381943
C        2.6619844399   -0.8122074796    5.9903006086
C        1.2968595054    0.7655322279    4.8885336306
N        1.5300796408    2.5230869318    1.9046507119
N        1.4759343366   -0.0634849038    5.8365029697
N        2.1584875556    1.0016967521    3.7991434598
H        5.8298395834   -3.0367468119    6.4996797713
H        6.0721267759   -0.6137243478    5.9757560262
H        3.5521565950   -4.0204147892    6.7377495067
H        4.0720579488    0.8054783909    5.6821929540
H        1.5376828568   -2.5860708479    6.4393827172
H        0.3829553466    1.3567637690    4.8428401344
H        2.9854739130    0.4186806520    3.7022119168
18   
torsion grid (60,)
C        1.7859285087    1.6130593143    2.7209675174
C        4.9391393700   -2.4023737885    6.2980100092
C        5.1011102068   -1.0235072960    6.1312891135
C        3.6481481276   -2.9413273925    6.3548643479
C        3.9861876244   -0.1892739620    6.0031902397
C        2.5288041493   -2.1146308424    6.2439923325
C        2.6882848528   -0.7322850533    6.0520046728
C        1.3167238815    0.8070248767    4.9466717348
N        1.4970612457    2.2786129217    1.8058861336
N        1.5337551219    0.0803607367    5.9674678589
N        2.1062733354    0.8602381690    3.7837362962
H        5.8074663632   -3.0480695699    6.3944315101
H        6.0978998881   -0.5908335872    6.1045428508
H        3.5114405877   -4.0104868725    6.4947200862
H        4.1154247020    0.8858726886    5.9045446900
H        1.5238840483   -2.5225675910    6.3032934621
H        0.4407202112    1.4529144941    4.9029468050
H        2.9249131871    0.2598504872    3.7285655930
18   
torsion grid (75,)
C        1.6974513744    1.4129981295    2.6736690036
C        4.9349753266   -2.3976936774    6.2572448328
C        5.1408515749   -1.0144225739    6.2385515074
C        3.6293582787   -2.9000147206    6.2076655784
C        4.0544745868   -0.1374435426    6.1604037794
C        2.5369184180   -2.0323056938    6.1383880356
C        2.7438985095   -0.6437232157    6.1043965888
C        1.3485697386    0.8514334249    4.9952411705
N        1.3815216946    2.0069987298    1.7192061247
N        1.6276528237    0.2289921351    6.0677441924
N        2.0461370887    0.7398357138    3.7800251647
H        5.7810290177   -3.0764281693    6.3180859338
H        6.1495689144   -0.6125026785    6.2878393726
H        3.4585461438   -3.9732255025    6.2284414840
H        4.2109583864    0.9383111426    6.1636395330
H        1.5205854727   -2.4152156309    6.1136459505
H        0.5023838401    1.5357889103    4.9507374989
H        2.8493588049    0.1173688915    3.7438072137
18   
torsion grid (90,)
C        1.5638645104    1.2140237960    2.6331813003
C        4.9265206319   -2.3962209898    6.2395754475
C        5.1799683695   -1.0270791530    6.3764366623
C        3.6114627671   -2.8380303839    6.0570825782
C        4.1318074640   -0.1034681834    6.3281913439
C        2.5557333336   -1.9233816758    6.0078226307
C        2.8127255299   -0.5486403168    6.1400693841
C        1.3890509300    0.9043959117    5.0216308710
N        1.1941011854    1.7246652192    1.6502844355
N        1.7410894236    0.3809099284    6.1246428242
N        1.9750430465    0.6378297612    3.7724237884
H        5.7435310152   -3.1110712776    6.2804886857
H        6.1971384138   -0.6734553977    6.5239205800
H        3.4031500704   -3.8998968168    5.9547130476
H        4.3217790048    0.9599735590    6.4459435486
H        1.5313987998   -2.2620991431    5.8782009625
H        0.5732403441    1.6247182447    4.9777891543
H        2.7435628524   -0.0271020925    3.7376380530
18   
torsion grid (105,)
C        1.3991628694    1.0531659575    2.6077753798
C        4.9266133749   -2.4042642738    6.2496885012
C        5.2172282052   -1.0624938409    6.5223174941
C        3.6157004669   -2.7734653861    5.9308890929
C        4.2104179263   -0.0951560286    6.4763995884
C        2.6015356392   -1.8124978629    5.8744992781
C        2.8968979158   -0.4647383516    6.1442272888
C        1.4357868483    0.9516089000    5.0197089465
N        0.9586983296    1.4967716761    1.6214529946
N        1.8747266272    0.5174196664    6.1306035928
N        1.8921935018    0.5544760066    3.7510349175
H        5.7114776831   -3.1541474924    6.2927029298
H        6.2316045972   -0.7662759479    6.7766648650
H        3.3770221711   -3.8140580107    5.7268186626
H        4.4262267482    0.9459557950    6.6995178323
H        1.5788168815   -2.0988101528    5.6426908251
H        0.6459375941    1.7007847314    4.9847415073
H        2.6293655429   -0.1443559909    3.7046439942
18   
torsion grid (120,)
C        0.0250713240    1.2474393538    4.6411627297
C        4.5313102633   -2.4918261231    6.7514758877
C        4.4981848138   -2.8057481394    5.3874334554
C        4.1986681625   -1.1988863702    7.1674532210
C        4.1338887218   -1.8412503188    4.4460991116
C        3.8184952132   -0.2301218969    6.2334104089
C        3.7728356563   -0.5496833914    4.8635527135
C        2.2955589905    0.9645318630    3.8728688903
N       -1.0149371666    1.7705478731    4.5489917663
N        3.4443751209    0.4195243529    3.8859713526
N        1.2274693173    0.6609136758    4.7358774680
H        4.8247389458   -3.2427661894    7.4796208279
H        4.7664256506   -3.8045442413    5.0530508804
H        4.2392454038   -0.9377214140    8.2218034252
H        4.1227371497   -2.0718549516    3.3847019109
H        3.5880543571    0.7824310318    6.5558126200
H        2.0526811511    1.7296918293    3.1366890983
H        1.3654226149   -0.0623955078    5.4369775230
18   
torsion grid (135,)
C        0.0525151009    1.4464892946    4.7118762341
C        4.5955053449   -2.4961546273    6.7542062962
C        4.6418534227   -2.8154511497    5.3915868335
C        4.1274006226   -1.2394752521    7.1496197672
C        4.2182359082   -1.8933137156    4.4340349338
C        3.6825954933   -0.3179596908    6.1968201125
C        3.7031188648   -0.6459572953    4.8265408638
C        2.2457548101    0.9225485895    3.8520252544
N       -0.9505364308    2.0384012722    4.6266485365
N        3.3362867012    0.2686313830    3.8145066287
N        1.2166527279    0.7856953868    4.8032590042
H        4.9375488847   -3.2113907539    7.4969555007
H        5.0240586791   -3.7815825732    5.0724667080
H        4.1160584414   -0.9676835600    8.2020334326
H        4.2722633429   -2.1227512593    3.3738257596
H        3.3670834900    0.6739033375    6.5109606791
H        2.0177140468    1.6556670098    3.0792633686
H        1.3087607713    0.0647258272    5.5138775845
18   
torsion grid (150,)
C        0.0976636587    1.6592033667    4.7378419785
C        4.6766679585   -2.4939980762    6.7575296114
C        4.7844741910   -2.8037407890    5.3960820332
C        4.0742307064   -1.2925008128    7.1412169495
C        4.2833141879   -1.9299752021    4.4321437167
C        3.5486261521   -0.4221610181    6.1816569345
C        3.6192024219   -0.7486010049    4.8107069796
C        2.1818735966    0.8646565612    3.8289939179
N       -0.8479738667    2.3375097604    4.6418257144
N        3.1997082371    0.1040571635    3.7694785052
N        1.2011973747    0.9014743170    4.8423462777
H        5.0789500181   -3.1689621784    7.5078082726
H        5.2782828870   -3.7203809190    5.0843760809
H        4.0224835871   -1.0204550717    8.1923389603
H        4.3853837496   -2.1454904345    3.3726162065
H        3.1520106338    0.5383517591    6.4989182656
H        1.9691163087    1.5549395320    3.0132695044
H        1.2223656897    0.1870502606    5.5644497146
18   
torsion grid (165,)
C        0.1604077610    1.8660402683    4.7492255582
C        4.7759783415   -2.4851140932    6.7594572923
C        4.9273913026   -2.7685336769    5.3966644053
C        4.0365875643   -1.3643975404    7.1471218736
C        4.3300572797   -1.9511351024    4.4391271142
C        3.4179466531   -0.5527919047    6.1917250373
C        3.5263776372   -0.8574656381    4.8164960937
C        2.0950691359    0.7817943697    3.8134952873
N       -0.7180616379    2.6260894840    4.6320968464
N        3.0332966566   -0.0740701004    3.7558924644
N        1.1934487052    1.0154369770    4.8777544893
H        5.2495259781   -3.1143408192    7.5079470147
H        5.5284490678   -3.6168605063    5.0800669231
H        3.9502899876   -1.1068678507    8.1996220571
H        4.4603432583   -2.1431986178    3.3783328536
H        2.9298063687    0.3563860019    6.5274751280
H        1.8810081200    1.4067882269    2.9465497072
H        1.1411781449    0.3312864236    5.6259463517
18   
torsion grid (180,)
C        0.3596870611    2.2147335860    4.7395471060
C        4.8871844556   -2.4289119499    6.7649643268
C        5.1420958644   -2.5875087549    5.3978954191
C        3.8777370837   -1.5534855759    7.1736934092
C        4.4071532199   -1.8653538889    4.4603562790
C        3.1439666600   -0.8200474556    6.2369803972
C        3.4170198287   -0.9424703881    4.8556149400
C        1.8021139811    0.5283595985    3.8125560518
N       -0.4791462969    3.0109658464    4.5809271561
N        2.7345024799   -0.3336323735    3.7872372281
N        1.3061907988    1.2740714668    4.9102843766
H        5.4538980045   -2.9930144696    7.5005915562
H        5.9059628346   -3.2839429609    5.0624575208
H        3.6460810051   -1.4467175710    8.2302260005
H        4.5829469368   -1.9876688730    3.3959918414
H        2.3239138469   -0.2178108755    6.6097283433
H        1.3021326716    0.7998131108    2.8822277466
H        1.8668610568    1.3403663304    5.7514607738
