36
0 1 C15FH18NO
C                     3.402292471584     0.445505059521     3.765578034900
C                     2.117533888161    -0.099284344685     3.811189104588
C                     4.502761387150    -0.341766635545     3.407675749014
C                     3.002122050160    -2.247697347662     3.145134133424
C                     1.905462586081    -1.451063936228     3.496332379063
C                     4.271706027266    -1.678933432341     3.107619490934
C                    -0.486174518954    -1.123083991595     2.769931710994
C                     1.472621753232     1.176643509366    -1.747330370003
C                     0.484906372228     0.124053891642    -2.223034339953
C                     1.514292648786    -0.765076288317    -0.004180076623
C                    -0.356538199331     0.935710035533     0.103021335937
C                     0.539639165836    -1.802519430785     0.574398022749
C                    -1.274056074881    -0.157161249982     0.670169509189
C                     0.747243709539     0.320152000784    -0.743453932860
C                     0.501177005091    -2.027349285374     3.514757789778
N                    -0.480785409992    -1.152892559747     1.400013279363
O                    -1.239030803701    -0.384793859917     3.412778070387
F                     5.323918796732    -2.465992435211     2.757308405596
H                     3.552893210054     1.494055023088     4.007852666039
H                     1.269042433024     0.522984546113     4.081770752961
H                     5.510280913049     0.059706905927     3.361833873393
H                     2.884468509255    -3.298766877391     2.895263221635
H                     2.531192586884     0.990908087036    -1.909965212089
H                     1.183007124622     2.220766328763    -1.833479017580
H                    -0.464341397507     0.464910898021    -2.628325789165
H                     0.883822389657    -0.764548000124    -2.705666260904
H                     2.092698702063    -0.323816732889     0.815956534245
H                     2.223825221754    -1.264803099137    -0.673881613237
H                    -0.949044137052     1.643256156628    -0.488489282952
H                     0.082219284534     1.495071620135     0.939039517999
H                     0.027511367547    -2.322069653843    -0.245809989999
H                     1.073224692551    -2.554464837507     1.151243744102
H                    -2.012109743722     0.254559083202     1.356775987515
H                    -1.796815821222    -0.669689651295    -0.147159435568
H                     0.501099300710    -3.046514747530     3.119108303893
H                     0.128399389060    -2.071127824966     4.540906073318
