
  -OEChem-05262117483D

 16 16  0     0  0  0  0  0  0999 V2000
    1.7122   -0.8413   -0.3105 C   0  0  0  0  0  0  0  0  0  0  0  0
    0.7133   -0.1997    0.4198 C   0  0  0  0  0  0  0  0  0  0  0  0
    2.7018   -1.5696    0.3614 C   0  0  0  0  0  0  0  0  0  0  0  0
    0.6600   -0.2491    1.8256 C   0  0  0  0  0  0  0  0  0  0  0  0
    1.6576   -0.9806    2.5259 C   0  0  0  0  0  0  0  0  0  0  0  0
    2.6698   -1.5888    1.7504 C   0  0  0  0  0  0  0  0  0  0  0  0
   -0.4459    0.4313    2.5582 C   0  0  0  0  0  0  0  0  0  0  0  0
   -0.6372    0.4246    3.7572 O   0  0  0  0  0  0  0  0  0  0  0  0
    1.6335   -1.0403    3.8702 O   0  0  0  0  0  0  0  0  0  0  0  0
   -1.2833    1.1003    1.7050 O   0  0  0  0  0  0  0  0  0  0  0  0
    3.7859   -3.2876    2.8116 I   0  0  0  0  0  0  0  0  0  0  0  0
    1.7261   -0.7789   -1.3945 H   0  0  0  0  0  0  0  0  0  0  0  0
   -0.0615    0.3523   -0.0991 H   0  0  0  0  0  0  0  0  0  0  0  0
    3.4836   -2.0900   -0.1821 H   0  0  0  0  0  0  0  0  0  0  0  0
    2.3195   -1.6774    4.1572 H   0  0  0  0  0  0  0  0  0  0  0  0
   -1.9709    1.4919    2.2762 H   0  0  0  0  0  0  0  0  0  0  0  0
  1  2  1  0  0  0  0
  1  3  2  0  0  0  0
  1 12  1  0  0  0  0
  2  4  2  0  0  0  0
  2 13  1  0  0  0  0
  3  6  1  0  0  0  0
  3 14  1  0  0  0  0
  4  5  1  0  0  0  0
  4  7  1  0  0  0  0
  5  6  2  0  0  0  0
  5  9  1  0  0  0  0
  6 11  1  0  0  0  0
  7  8  2  0  0  0  0
  7 10  1  0  0  0  0
  9 15  1  0  0  0  0
 10 16  1  0  0  0  0
M  END
$$$$
