
  -OEChem-05262117483D

 20 20  0     0  0  0  0  0  0999 V2000
    1.7444    1.4761    4.3210 C   0  0  0  0  0  0  0  0  0  0  0  0
    2.1791    1.1493    5.5961 C   0  0  0  0  0  0  0  0  0  0  0  0
    2.7965   -0.1313    5.4951 C   0  0  0  0  0  0  0  0  0  0  0  0
    2.9844    0.5935    1.1716 C   0  0  0  0  0  0  0  0  0  0  0  0
    3.3625   -1.0017    6.5758 C   0  0  0  0  0  0  0  0  0  0  0  0
    4.3538    0.8094    1.7646 C   0  0  0  0  0  0  0  0  0  0  0  0
    1.8171    0.2491    2.1149 C   0  0  0  0  0  0  0  0  0  0  0  0
    2.7024   -0.5666    4.2318 N   0  0  0  0  0  0  0  0  0  0  0  0
    2.0707    0.4167    3.5328 N   0  0  0  0  0  0  0  0  0  0  0  0
    2.7492    0.6610   -0.0222 O   0  0  0  0  0  0  0  0  0  0  0  0
    2.4177    2.5718    7.2290 I   0  0  0  0  0  0  0  0  0  0  0  0
    1.2311    2.3485    3.9404 H   0  0  0  0  0  0  0  0  0  0  0  0
    2.5703   -1.3214    7.2600 H   0  0  0  0  0  0  0  0  0  0  0  0
    3.8301   -1.8875    6.1426 H   0  0  0  0  0  0  0  0  0  0  0  0
    4.0973   -0.4541    7.1729 H   0  0  0  0  0  0  0  0  0  0  0  0
    4.6447   -0.0566    2.3678 H   0  0  0  0  0  0  0  0  0  0  0  0
    5.0749    0.9854    0.9657 H   0  0  0  0  0  0  0  0  0  0  0  0
    4.3365    1.6681    2.4451 H   0  0  0  0  0  0  0  0  0  0  0  0
    1.5537   -0.7973    1.9377 H   0  0  0  0  0  0  0  0  0  0  0  0
    0.9583    0.8589    1.8269 H   0  0  0  0  0  0  0  0  0  0  0  0
  1  2  2  0  0  0  0
  1  9  1  0  0  0  0
  1 12  1  0  0  0  0
  2  3  1  0  0  0  0
  2 11  1  0  0  0  0
  3  5  1  0  0  0  0
  3  8  2  0  0  0  0
  4  6  1  0  0  0  0
  4  7  1  0  0  0  0
  4 10  2  0  0  0  0
  5 13  1  0  0  0  0
  5 14  1  0  0  0  0
  5 15  1  0  0  0  0
  6 16  1  0  0  0  0
  6 17  1  0  0  0  0
  6 18  1  0  0  0  0
  7  9  1  0  0  0  0
  7 19  1  0  0  0  0
  7 20  1  0  0  0  0
  8  9  1  0  0  0  0
M  END
$$$$
