
  -OEChem-05262117483D

 36 38  0     0  0  0  0  0  0999 V2000
   -1.2155   -2.8870    5.8968 C   0  0  0  0  0  0  0  0  0  0  0  0
   -1.0096   -2.9376    4.5145 C   0  0  0  0  0  0  0  0  0  0  0  0
   -0.5596   -1.9318    6.6777 C   0  0  0  0  0  0  0  0  0  0  0  0
    0.5131   -1.0693    4.6632 C   0  0  0  0  0  0  0  0  0  0  0  0
   -0.1456   -2.0318    3.8873 C   0  0  0  0  0  0  0  0  0  0  0  0
    0.2934   -1.0403    6.0339 C   0  0  0  0  0  0  0  0  0  0  0  0
   -0.7200   -0.9906    1.6473 C   0  0  0  0  0  0  0  0  0  0  0  0
    1.6876    0.9951   -2.7902 C   0  0  0  0  0  0  0  0  0  0  0  0
    0.5898    0.0800   -3.3063 C   0  0  0  0  0  0  0  0  0  0  0  0
    1.3958   -0.9260   -1.0476 C   0  0  0  0  0  0  0  0  0  0  0  0
   -0.2332    1.0119   -1.0179 C   0  0  0  0  0  0  0  0  0  0  0  0
    0.2681   -1.8231   -0.5122 C   0  0  0  0  0  0  0  0  0  0  0  0
   -1.3074    0.0537   -0.4840 C   0  0  0  0  0  0  0  0  0  0  0  0
    0.8130    0.2494   -1.8169 C   0  0  0  0  0  0  0  0  0  0  0  0
    0.0712   -2.0802    2.3952 C   0  0  0  0  0  0  0  0  0  0  0  0
   -0.6850   -1.0382    0.2737 N   0  0  0  0  0  0  0  0  0  0  0  0
   -1.3640   -0.1387    2.2578 O   0  0  0  0  0  0  0  0  0  0  0  0
    0.9410   -0.1025    6.7776 F   0  0  0  0  0  0  0  0  0  0  0  0
   -1.8891   -3.5956    6.3711 H   0  0  0  0  0  0  0  0  0  0  0  0
   -1.5299   -3.6839    3.9191 H   0  0  0  0  0  0  0  0  0  0  0  0
   -0.6985   -1.8703    7.7527 H   0  0  0  0  0  0  0  0  0  0  0  0
    1.1774   -0.3374    4.2129 H   0  0  0  0  0  0  0  0  0  0  0  0
    2.7179    0.6695   -2.9091 H   0  0  0  0  0  0  0  0  0  0  0  0
    1.5434    2.0678   -2.8882 H   0  0  0  0  0  0  0  0  0  0  0  0
   -0.2887    0.5404   -3.7506 H   0  0  0  0  0  0  0  0  0  0  0  0
    0.8871   -0.8566   -3.7712 H   0  0  0  0  0  0  0  0  0  0  0  0
    1.9911   -0.5570   -0.2014 H   0  0  0  0  0  0  0  0  0  0  0  0
    2.0649   -1.5147   -1.6861 H   0  0  0  0  0  0  0  0  0  0  0  0
   -0.7029    1.7853   -1.6366 H   0  0  0  0  0  0  0  0  0  0  0  0
    0.2406    1.5182   -0.1673 H   0  0  0  0  0  0  0  0  0  0  0  0
   -0.2736   -2.2696   -1.3560 H   0  0  0  0  0  0  0  0  0  0  0  0
    0.6692   -2.6429    0.0814 H   0  0  0  0  0  0  0  0  0  0  0  0
   -2.0070    0.5648    0.1756 H   0  0  0  0  0  0  0  0  0  0  0  0
   -1.8654   -0.3873   -1.3196 H   0  0  0  0  0  0  0  0  0  0  0  0
    1.1367   -1.9548    2.1697 H   0  0  0  0  0  0  0  0  0  0  0  0
   -0.2142   -3.0642    2.0106 H   0  0  0  0  0  0  0  0  0  0  0  0
  1  2  1  0  0  0  0
  1  3  2  0  0  0  0
  1 19  1  0  0  0  0
  2  5  2  0  0  0  0
  2 20  1  0  0  0  0
  3  6  1  0  0  0  0
  3 21  1  0  0  0  0
  4  5  1  0  0  0  0
  4  6  2  0  0  0  0
  4 22  1  0  0  0  0
  5 15  1  0  0  0  0
  6 18  1  0  0  0  0
  7 15  1  0  0  0  0
  7 16  1  0  0  0  0
  7 17  2  0  0  0  0
  8  9  1  0  0  0  0
  8 14  1  0  0  0  0
  8 23  1  0  0  0  0
  8 24  1  0  0  0  0
  9 14  1  0  0  0  0
  9 25  1  0  0  0  0
  9 26  1  0  0  0  0
 10 12  1  0  0  0  0
 10 14  1  0  0  0  0
 10 27  1  0  0  0  0
 10 28  1  0  0  0  0
 11 13  1  0  0  0  0
 11 14  1  0  0  0  0
 11 29  1  0  0  0  0
 11 30  1  0  0  0  0
 12 16  1  0  0  0  0
 12 31  1  0  0  0  0
 12 32  1  0  0  0  0
 13 16  1  0  0  0  0
 13 33  1  0  0  0  0
 13 34  1  0  0  0  0
 15 35  1  0  0  0  0
 15 36  1  0  0  0  0
M  END
$$$$
