
  -OEChem-05262117483D

 16 16  0     0  0  0  0  0  0999 V2000
    1.8473   -0.9261   -0.1080 C   0  0  0  0  0  0  0  0  0  0  0  0
    0.7737   -0.2863    0.5123 C   0  0  0  0  0  0  0  0  0  0  0  0
    2.4239   -1.9935    2.0060 C   0  0  0  0  0  0  0  0  0  0  0  0
    2.6651   -1.7592    0.6536 C   0  0  0  0  0  0  0  0  0  0  0  0
    0.5367   -0.4977    1.8674 C   0  0  0  0  0  0  0  0  0  0  0  0
    1.3476   -1.3507    2.6196 C   0  0  0  0  0  0  0  0  0  0  0  0
    4.9550   -1.9447   -0.0562 C   0  0  0  0  0  0  0  0  0  0  0  0
    3.6960   -2.4760    0.0195 O   0  0  0  0  0  0  0  0  0  0  0  0
   -0.5047    0.1261    2.4505 F   0  0  0  0  0  0  0  0  0  0  0  0
    4.9916   -0.3704   -0.9691 Cl  0  0  0  0  0  0  0  0  0  0  0  0
    5.9373   -3.1555   -0.9272 Cl  0  0  0  0  0  0  0  0  0  0  0  0
    5.6811   -1.6432    1.5838 Cl  0  0  0  0  0  0  0  0  0  0  0  0
    0.9770   -1.6398    4.4633 Br  0  0  0  0  0  0  0  0  0  0  0  0
    2.0449   -0.7873   -1.1644 H   0  0  0  0  0  0  0  0  0  0  0  0
    0.1118    0.3727   -0.0405 H   0  0  0  0  0  0  0  0  0  0  0  0
    3.0589   -2.6692    2.5661 H   0  0  0  0  0  0  0  0  0  0  0  0
  1  2  1  0  0  0  0
  1  4  2  0  0  0  0
  1 14  1  0  0  0  0
  2  5  2  0  0  0  0
  2 15  1  0  0  0  0
  3  4  1  0  0  0  0
  3  6  2  0  0  0  0
  3 16  1  0  0  0  0
  4  8  1  0  0  0  0
  5  6  1  0  0  0  0
  5  9  1  0  0  0  0
  6 13  1  0  0  0  0
  7  8  1  0  0  0  0
  7 10  1  0  0  0  0
  7 11  1  0  0  0  0
  7 12  1  0  0  0  0
M  END
$$$$
