18
0 1 C7ClF3H3NO3
C                     0.869126810427    -2.021488404345     2.943821850720
C                     1.414996535200    -1.322631473592     1.867346930574
C                     0.056502637372     0.613067266411     2.447312220378
C                    -0.457857330935    -0.092750736543     3.534557500168
C                    -0.069670026903    -1.417962668718     3.779313035782
C                     0.991231509564    -0.016857299886     1.636278208966
C                    -1.761213588130    -2.783278867315     4.712210039348
N                    -1.393797701432     0.630660493044     4.416831681352
O                    -2.127214211544     1.465629210862     3.880247921229
O                    -1.355540035929     0.377731593157     5.620511648177
O                    -0.557420282129    -2.150902596542     4.856968587327
F                     1.508199850552     0.664923135195     0.592914282607
F                    -2.732461466473    -1.932713355019     4.305440878651
F                    -2.090455948500    -3.267913332417     5.910668254795
Cl                   -1.713335719066    -4.147010783428     3.526296361271
H                     1.161598752554    -3.045563996003     3.147925500876
H                     2.150584603372    -1.777451766555     1.211901031132
H                    -0.263575934782     1.629941444162     2.251497713177
