
  -OEChem-05262117483D

 20 20  0     0  0  0  0  0  0999 V2000
    1.4039    0.6308    3.4044 C   0  0  0  0  0  0  0  0  0  0  0  0
    1.4096    0.4829    4.7838 C   0  0  0  0  0  0  0  0  0  0  0  0
    2.5752   -0.2753    5.1018 C   0  0  0  0  0  0  0  0  0  0  0  0
    2.3838   -1.5758    1.0306 C   0  0  0  0  0  0  0  0  0  0  0  0
    3.0656   -0.7573    6.4325 C   0  0  0  0  0  0  0  0  0  0  0  0
    3.1585   -2.8146    1.4083 C   0  0  0  0  0  0  0  0  0  0  0  0
    2.9146   -0.2340    1.5748 C   0  0  0  0  0  0  0  0  0  0  0  0
    3.2158   -0.5961    3.9704 N   0  0  0  0  0  0  0  0  0  0  0  0
    2.5060   -0.0260    2.9555 N   0  0  0  0  0  0  0  0  0  0  0  0
    1.3810   -1.5903    0.3382 O   0  0  0  0  0  0  0  0  0  0  0  0
    0.3225    1.7948    6.1493 I   0  0  0  0  0  0  0  0  0  0  0  0
    0.7274    1.1469    2.7378 H   0  0  0  0  0  0  0  0  0  0  0  0
    2.3494   -1.4557    6.8767 H   0  0  0  0  0  0  0  0  0  0  0  0
    4.0284   -1.2589    6.3219 H   0  0  0  0  0  0  0  0  0  0  0  0
    3.1711    0.0769    7.1324 H   0  0  0  0  0  0  0  0  0  0  0  0
    3.3976   -2.8042    2.4760 H   0  0  0  0  0  0  0  0  0  0  0  0
    2.5977   -3.7109    1.1401 H   0  0  0  0  0  0  0  0  0  0  0  0
    4.1149   -2.8115    0.8698 H   0  0  0  0  0  0  0  0  0  0  0  0
    2.5020    0.5710    0.9650 H   0  0  0  0  0  0  0  0  0  0  0  0
    4.0070   -0.2003    1.5482 H   0  0  0  0  0  0  0  0  0  0  0  0
  1  2  2  0  0  0  0
  1  9  1  0  0  0  0
  1 12  1  0  0  0  0
  2  3  1  0  0  0  0
  2 11  1  0  0  0  0
  3  5  1  0  0  0  0
  3  8  2  0  0  0  0
  4  6  1  0  0  0  0
  4  7  1  0  0  0  0
  4 10  2  0  0  0  0
  5 13  1  0  0  0  0
  5 14  1  0  0  0  0
  5 15  1  0  0  0  0
  6 16  1  0  0  0  0
  6 17  1  0  0  0  0
  6 18  1  0  0  0  0
  7  9  1  0  0  0  0
  7 19  1  0  0  0  0
  7 20  1  0  0  0  0
  8  9  1  0  0  0  0
M  END
$$$$
