
  -OEChem-05262117483D

 36 38  0     0  0  0  0  0  0999 V2000
   -1.9187   -4.5519    2.7933 C   0  0  0  0  0  0  0  0  0  0  0  0
   -1.4833   -3.2316    2.9246 C   0  0  0  0  0  0  0  0  0  0  0  0
   -1.0214   -5.5737    2.4626 C   0  0  0  0  0  0  0  0  0  0  0  0
    0.7721   -3.9211    2.3950 C   0  0  0  0  0  0  0  0  0  0  0  0
   -0.1329   -2.9042    2.7253 C   0  0  0  0  0  0  0  0  0  0  0  0
    0.3110   -5.2283    2.2716 C   0  0  0  0  0  0  0  0  0  0  0  0
   -0.6120   -0.4548    2.2473 C   0  0  0  0  0  0  0  0  0  0  0  0
    0.6231    1.4991   -2.8678 C   0  0  0  0  0  0  0  0  0  0  0  0
   -0.4630    0.4419   -2.9774 C   0  0  0  0  0  0  0  0  0  0  0  0
    1.0131   -0.2181   -0.9391 C   0  0  0  0  0  0  0  0  0  0  0  0
   -0.7516    1.5634   -0.6450 C   0  0  0  0  0  0  0  0  0  0  0  0
    0.1741   -1.1456   -0.0486 C   0  0  0  0  0  0  0  0  0  0  0  0
   -1.5444    0.5902    0.2366 C   0  0  0  0  0  0  0  0  0  0  0  0
    0.1241    0.8038   -1.6284 C   0  0  0  0  0  0  0  0  0  0  0  0
    0.3420   -1.4712    2.8825 C   0  0  0  0  0  0  0  0  0  0  0  0
   -0.6399   -0.3655    0.8822 N   0  0  0  0  0  0  0  0  0  0  0  0
   -1.3414    0.2316    2.9701 O   0  0  0  0  0  0  0  0  0  0  0  0
    1.2036   -6.2022    1.9474 F   0  0  0  0  0  0  0  0  0  0  0  0
   -2.9667   -4.7928    2.9503 H   0  0  0  0  0  0  0  0  0  0  0  0
   -2.1896   -2.4475    3.1832 H   0  0  0  0  0  0  0  0  0  0  0  0
   -1.3365   -6.6069    2.3540 H   0  0  0  0  0  0  0  0  0  0  0  0
    1.8267   -3.7128    2.2341 H   0  0  0  0  0  0  0  0  0  0  0  0
    1.6154    1.2477   -3.2336 H   0  0  0  0  0  0  0  0  0  0  0  0
    0.3396    2.5371   -3.0211 H   0  0  0  0  0  0  0  0  0  0  0  0
   -1.4731    0.7725   -3.2046 H   0  0  0  0  0  0  0  0  0  0  0  0
   -0.1967   -0.5158   -3.4171 H   0  0  0  0  0  0  0  0  0  0  0  0
    1.7568    0.2981   -0.3174 H   0  0  0  0  0  0  0  0  0  0  0  0
    1.5598   -0.8178   -1.6761 H   0  0  0  0  0  0  0  0  0  0  0  0
   -1.4469    2.2236   -1.1760 H   0  0  0  0  0  0  0  0  0  0  0  0
   -0.1263    2.1961   -0.0021 H   0  0  0  0  0  0  0  0  0  0  0  0
   -0.4965   -1.7490   -0.6761 H   0  0  0  0  0  0  0  0  0  0  0  0
    0.8091   -1.8415    0.4939 H   0  0  0  0  0  0  0  0  0  0  0  0
   -2.0932    1.1099    1.0206 H   0  0  0  0  0  0  0  0  0  0  0  0
   -2.2618    0.0304   -0.3795 H   0  0  0  0  0  0  0  0  0  0  0  0
    0.3693   -1.2059    3.9422 H   0  0  0  0  0  0  0  0  0  0  0  0
    1.3588   -1.3637    2.4939 H   0  0  0  0  0  0  0  0  0  0  0  0
  1  2  1  0  0  0  0
  1  3  2  0  0  0  0
  1 19  1  0  0  0  0
  2  5  2  0  0  0  0
  2 20  1  0  0  0  0
  3  6  1  0  0  0  0
  3 21  1  0  0  0  0
  4  5  1  0  0  0  0
  4  6  2  0  0  0  0
  4 22  1  0  0  0  0
  5 15  1  0  0  0  0
  6 18  1  0  0  0  0
  7 15  1  0  0  0  0
  7 16  1  0  0  0  0
  7 17  2  0  0  0  0
  8  9  1  0  0  0  0
  8 14  1  0  0  0  0
  8 23  1  0  0  0  0
  8 24  1  0  0  0  0
  9 14  1  0  0  0  0
  9 25  1  0  0  0  0
  9 26  1  0  0  0  0
 10 12  1  0  0  0  0
 10 14  1  0  0  0  0
 10 27  1  0  0  0  0
 10 28  1  0  0  0  0
 11 13  1  0  0  0  0
 11 14  1  0  0  0  0
 11 29  1  0  0  0  0
 11 30  1  0  0  0  0
 12 16  1  0  0  0  0
 12 31  1  0  0  0  0
 12 32  1  0  0  0  0
 13 16  1  0  0  0  0
 13 33  1  0  0  0  0
 13 34  1  0  0  0  0
 15 35  1  0  0  0  0
 15 36  1  0  0  0  0
M  END
$$$$
