21
0 1 BrC10FH8O
C                     2.254192172407    -1.093764160931    -0.151400584532
C                     1.005172079917    -1.049176070167     0.467926710695
C                     3.415284989213    -1.177339361523     0.620775012948
C                     0.886895046548    -1.112905241489     1.864903640016
C                     2.061820322803    -1.202139738344     2.625415346257
C                     3.316542162151    -1.223732629214     2.012711481712
C                    -0.468025973756    -1.153372258889     2.516949798134
C                    -2.700625620426     0.088960478312     2.812352598826
C                    -2.925588245577    -0.945307801980     1.759575885206
C                    -1.538311335615    -0.309595629821     1.909674116997
O                    -0.683137187240    -1.871305599452     3.485719216801
F                     1.992811883832    -1.228504373584     3.963392646744
Br                    4.890416143112    -1.314894701685     3.084581586439
H                     2.329628622208    -1.062371881806    -1.234227478035
H                     0.105078189546    -0.993494228983    -0.136713821394
H                     4.394134529938    -1.202704709101     0.152896372711
H                    -3.108032714834     1.084068613119     2.664057808261
H                    -2.628158140533    -0.250808169298     3.840253025153
H                    -3.003612546567    -1.979102103536     2.080530774822
H                    -3.489228180302    -0.680703945757     0.870137681777
H                    -1.237378484903     0.403984296833     1.150817470692
