18
0 1 C7ClF3H3NO3
C                     1.877321561155    -1.292736850642    -0.135487611962
C                     0.801948472630    -0.727565016686     0.549078528376
C                     1.839959475163    -1.325321535359     2.666989201294
C                     2.922673368164    -1.859715787730     1.966817879019
C                     2.952722902451    -1.840895848946     0.564286367021
C                     0.806527855792    -0.750256775784     1.941336477587
C                     4.960361241621    -1.716097029253    -0.697540110306
N                     4.006389115336    -2.459205541689     2.770268262408
O                     3.691447684415    -2.903898917453     3.878645821348
O                     5.143927418395    -2.464403924601     2.300714284165
O                     3.973507482827    -2.479421185366    -0.131617040506
F                    -0.234837929169    -0.211421170834     2.609186396682
F                     6.038042130171    -2.492281191730    -0.827673126243
F                     5.273421595728    -0.642608695324     0.051192291146
Cl                    4.505265035661    -1.110739774258    -2.347581096666
H                     1.889280341687    -1.318726166945    -1.219022571031
H                    -0.035856952543    -0.287102317469     0.018193144253
H                     1.814203922894    -1.363088320206     3.749657188172
