
  -OEChem-05262117483D

 14 14  0     0  0  0  0  0  0999 V2000
    2.3861   -0.9885   -0.1905 C   0  0  0  0  0  0  0  0  0  0  0  0
    1.4079   -0.3230    0.5454 C   0  0  0  0  0  0  0  0  0  0  0  0
    2.3437   -1.2467    2.5936 C   0  0  0  0  0  0  0  0  0  0  0  0
    3.3449   -1.7863    0.4435 C   0  0  0  0  0  0  0  0  0  0  0  0
    1.3844   -0.4702    1.9346 C   0  0  0  0  0  0  0  0  0  0  0  0
    3.3149   -1.9163    1.8436 C   0  0  0  0  0  0  0  0  0  0  0  0
    4.2656   -2.5338   -0.4400 N   0  3  0  0  0  0  0  0  0  0  0  0
    4.4599   -2.0643   -1.5673 O   0  5  0  0  0  0  0  0  0  0  0  0
    4.7465   -3.5862   -0.0202 O   0  0  0  0  0  0  0  0  0  0  0  0
    0.0296    0.4005    2.9603 Br  0  0  0  0  0  0  0  0  0  0  0  0
    5.1320   -2.5475    2.9999 I   0  0  0  0  0  0  0  0  0  0  0  0
    2.4115   -0.9127   -1.2721 H   0  0  0  0  0  0  0  0  0  0  0  0
    0.6688    0.2909    0.0424 H   0  0  0  0  0  0  0  0  0  0  0  0
    2.3256   -1.3421    3.6731 H   0  0  0  0  0  0  0  0  0  0  0  0
  1  2  1  0  0  0  0
  1  4  2  0  0  0  0
  1 12  1  0  0  0  0
  2  5  2  0  0  0  0
  2 13  1  0  0  0  0
  3  5  1  0  0  0  0
  3  6  2  0  0  0  0
  3 14  1  0  0  0  0
  4  6  1  0  0  0  0
  4  7  1  0  0  0  0
  5 10  1  0  0  0  0
  6 11  1  0  0  0  0
  7  8  1  0  0  0  0
  7  9  2  0  0  0  0
M  CHG  2   7   1   8  -1
M  END
$$$$
