21   
torsion grid (-165,)
C       -1.7846241019    4.0095438737    0.5267715214
C       -2.9856012101    3.4928536967    0.1239699036
C       -0.7751304990    3.0147850486    0.7703337924
C       -1.2475031227    1.7378868887    0.5406185641
C       -1.9437560504   -1.7340718146    0.6579818207
C       -1.4681971066   -0.6408027512    1.2612957868
C        0.6157107764    3.4138027314    1.2123701684
C       -0.5707305872    0.3761034228    0.5904378984
N        0.6957921620    0.4210405250    1.3484316773
S       -2.9257951799    1.7673082967    0.0400909972
H       -1.6083502987    5.0733089452    0.6576558269
H       -3.9014671042    4.0211778129   -0.1089168952
H       -2.5858372442   -2.4384468397    1.1808317732
H       -1.7167167946   -1.9531373647   -0.3841002295
H       -1.7077356636   -0.4281456616    2.3026309216
H        0.6420677781    4.4833000180    1.4390386547
H        0.9289730356    2.8648702932    2.1020370457
H        1.3603109257    3.2370539629    0.4261725246
H       -0.4185937866    0.0422671418   -0.4502424224
H        1.3916765074    0.9489877246    0.8250142448
H        1.0501351487   -0.5325476203    1.4136073693
21   
torsion grid (-150,)
C       -1.7781490490    4.0133080786    0.5470991592
C       -3.0198924285    3.4879226799    0.3096176772
C       -0.7580572896    3.0208684536    0.7387664932
C       -1.2621091714    1.7387626639    0.6505269303
C       -1.8830570696   -1.7344031467    0.4437788973
C       -1.4949382542   -0.6936526138    1.1860426169
C        0.6814894845    3.4098985378    0.9878693202
C       -0.5579737244    0.3913904015    0.7057197370
N        0.5946402925    0.4200300588    1.6323500870
S       -2.9793191920    1.7601415301    0.3199371331
H       -1.5805072646    5.0807326727    0.5849354465
H       -3.9510668654    4.0130163606    0.1383909356
H       -2.5573980488   -2.4916990769    0.8356924210
H       -1.5496065246   -1.8554591426   -0.5855152653
H       -1.8394305486   -0.5829519673    2.2137636898
H        0.7980084528    4.4942176023    0.9089302501
H        1.0141719787    3.1086095523    1.9852979664
H        1.3610285751    2.9625074973    0.2526089282
H       -0.2555256413    0.1331016701   -0.3238391300
H        1.3435480807    0.9846577076    1.2389809801
H        0.9597788392   -0.5293217822    1.7010374358
21   
torsion grid (-135,)
C       -1.7673355769    4.0184505302    0.5678488547
C       -3.0372534584    3.5100975421    0.4979959919
C       -0.7555232392    3.0109660270    0.7088690779
C       -1.2915916038    1.7405971760    0.7675319677
C       -1.7844236814   -1.7218108639    0.2418077105
C       -1.5182881715   -0.7403473504    1.1079792775
C        0.7150186912    3.3544462628    0.7470695375
C       -0.5716058743    0.4044323962    0.8332112072
N        0.4419480111    0.4061096028    1.9109942211
S       -3.0287340067    1.7846885964    0.6039398117
H       -1.5460626714    5.0803442316    0.5091886706
H       -3.9708625282    4.0465980044    0.3855505766
H       -2.4698274630   -2.5281773299    0.4904045684
H       -1.3348398697   -1.7443060532   -0.7495411154
H       -1.9714939679   -0.7349297196    2.0987576340
H        0.8851983369    4.3471681722    0.3206942908
H        1.1051301927    3.3709612619    1.7716737678
H        1.3160824496    2.6472449200    0.1649791056
H       -0.1209217475    0.2319963598   -0.1600605411
H        1.1402973637    1.1244624324    1.7414466829
H        0.9296215902   -0.4888174234    1.8902873002
21   
torsion grid (-120,)
C       -1.5641217225    4.0784269839    0.5239306789
C       -2.4162436647    3.9245902442   -0.5383401349
C       -0.9336222523    2.8548381384    0.9256930554
C       -1.3540280963    1.7801097571    0.1685252571
C       -2.2088087203   -1.5123722527   -0.7876800293
C       -1.3384514456   -0.5048138017   -0.8986873316
C        0.0830092391    2.7849164404    2.0387858098
C       -0.8534382667    0.3513041725    0.2507590913
N       -1.2155010215   -0.2404828258    1.5513333107
S       -2.4804762365    2.2787816323   -1.0647659196
H       -1.3754784676    5.0344881075    1.0038802271
H       -3.0081165020    4.6809904256   -1.0381322561
H       -2.5089113004   -2.0910528755   -1.6575297421
H       -2.6478189978   -1.7667395455    0.1727295841
H       -0.9153164462   -0.2537573003   -1.8709327280
H       -0.3909820184    2.6325540538    3.0167363938
H        0.8001914731    1.9724091839    1.8855534556
H        0.6504622613    3.7184742069    2.1007643245
H        0.2455069991    0.4188542339    0.1361589170
H       -1.0154135476    0.4154349724    2.3008513352
H       -0.6497172110   -1.0726118878    1.7124480670
21   
torsion grid (-105,)
C       -1.5849974476    4.0966712171    0.5637701341
C       -2.5337280850    3.8666949267   -0.3982296149
C       -0.8846762537    2.9095234687    0.9610988073
C       -1.3369239943    1.7919765499    0.2907070562
C       -2.0623248580   -1.5108225842   -0.7220940761
C       -1.1938970639   -0.4954766498   -0.7418933154
C        0.2028643639    2.9088522668    2.0060496882
C       -0.8432070167    0.3702651016    0.4484613284
N       -1.3637689606   -0.2023294183    1.7037288001
S       -2.6031842479    2.1950985430   -0.8375669225
H       -1.3785959316    5.0805318465    0.9754500304
H       -3.1900748083    4.5836711975   -0.8753396918
H       -2.2647450433   -2.0916521216   -1.6183600680
H       -2.5996539666   -1.7686585737    0.1859797123
H       -0.6761316018   -0.2364774259   -1.6649745473
H       -0.2151657580    2.9382970836    3.0199898118
H        0.8377916276    2.0210650595    1.9357040063
H        0.8469283536    3.7874852522    1.8980340173
H        0.2601458397    0.4375187991    0.4623690033
H       -1.2429069890    0.4675447989    2.4594889122
H       -0.8301436309   -1.0370823851    1.9438246156
21   
torsion grid (-90,)
C       -1.5717174236    4.0832175770    0.5566508510
C       -2.6119544848    3.8251040507   -0.2967433927
C       -0.8375492833    2.9058459887    0.9248700326
C       -1.3499031434    1.7707299735    0.3318805975
C       -1.9621266410   -1.4973161504   -0.8538027028
C       -1.1015957276   -0.4814860191   -0.7376636375
C        0.3320788085    2.9448468112    1.8760209567
C       -0.8900471255    0.3424661683    0.5143692245
N       -1.5775105913   -0.2556276734    1.6737060537
S       -2.7267766556    2.1410810759   -0.6744024878
H       -1.3244046003    5.0792165706    0.9129050963
H       -3.3100693497    4.5298622782   -0.7310615736
H       -2.0620479463   -2.0420743517   -1.7891493144
H       -2.5972418471   -1.7908656367   -0.0230134436
H       -0.4892163894   -0.1825781821   -1.5878750942
H        0.0033304316    3.1815119852    2.8950434667
H        0.8660374027    1.9921348179    1.9142399244
H        1.0503500744    3.7173724554    1.5808882540
H        0.2020420011    0.3936134714    0.6666329518
H       -1.5277545575    0.3870117989    2.4612824551
H       -1.1019222740   -1.1152004885    1.9464969217
21   
torsion grid (-75,)
C       -1.5339571885    4.0721274821    0.5390926129
C       -2.6625056345    3.8048934721   -0.1890216070
C       -0.7922285861    2.8920252651    0.8877890568
C       -1.3878464637    1.7464459131    0.4029306979
C       -1.8219029848   -1.4682454263   -0.9991654932
C       -0.9996284271   -0.4519455601   -0.7216612383
C        0.4775621300    2.9586594930    1.6989851182
C       -0.9592845971    0.3093964431    0.5873438070
N       -1.8054490263   -0.3354144051    1.6072203054
S       -2.8545858787    2.1098493334   -0.4745479238
H       -1.2302322542    5.0753723314    0.8241926668
H       -3.3895387295    4.5082523979   -0.5757004447
H       -1.7945767999   -1.9615350270   -1.9674181294
H       -2.5534388440   -1.8133843514   -0.2742350474
H       -0.2914632906   -0.1000087142   -1.4712640880
H        0.2989460109    3.4535323983    2.6603079132
H        0.8919062272    1.9699926827    1.9080165088
H        1.2469553979    3.5372463467    1.1750177483
H        0.1003448535    0.3445630692    0.8896296861
H       -1.8449252909    0.2593640682    2.4323863826
H       -1.3880908863   -1.2226207268    1.8864847329
21   
torsion grid (-60,)
C       -1.8854004772    3.9357806724    0.4713058199
C       -2.6794043216    3.7078006869   -0.6214850045
C       -1.1726422851    2.7689968701    0.9096310141
C       -1.4594243164    1.6673231741    0.1320098338
C        1.2653723522   -0.2658746430   -1.0220152230
C       -0.0534628280   -0.0517399163   -1.0214216405
C       -0.2019390667    2.7941638918    2.0655673850
C       -0.8565278414    0.2872922581    0.2146357666
N       -1.9302949932   -0.7136136610    0.3782626238
S       -2.5906260698    2.0599034462   -1.1411003882
H       -1.8089464126    4.9019350447    0.9614141138
H       -3.3291096437    4.4060949748   -1.1340616236
H        1.8031255178   -0.5034836442   -1.9364126571
H        1.8535715910   -0.2016297263   -0.1078109718
H       -0.6266312652   -0.1255419965   -1.9449844817
H       -0.4457827683    3.6088040278    2.7538562210
H       -0.2162823260    1.8627535933    2.6385499841
H        0.8264242906    2.9527146575    1.7195912528
H       -0.1578109327    0.3013092813    1.0645045124
H       -2.5036519816   -0.4698256919    1.1843826954
H       -1.5192765156   -1.6299049750    0.5514052182
21   
torsion grid (-45,)
C       -1.5846099590    3.8585859242    0.4534301608
C       -2.5022485934    3.6030356258   -0.5317726423
C       -0.8652011614    2.6906529594    0.8754077997
C       -1.2765396517    1.5616711554    0.2003268132
C        1.5735540818   -0.2932369034   -0.7358029293
C        0.2659480992   -0.0598176678   -0.8837235259
C        0.2408691502    2.7293635791    1.9009516776
C       -0.6885763663    0.1752495243    0.2660514483
N       -1.7708704933   -0.8245707743    0.2079279926
S       -2.5249395040    1.9272361410   -0.9661853200
H       -1.4222318320    4.8457482385    0.8762572987
H       -3.1848286102    4.2975705047   -1.0053758365
H        2.2249539066   -0.4459287357   -1.5926487771
H        2.0374921719   -0.3324188527    0.2486101588
H       -0.1846596804   -0.0238552848   -1.8750452956
H        0.1981752574    1.8753678942    2.5840306785
H        1.2272584731    2.7166271114    1.4222988065
H        0.1770103882    3.6398254965    2.5038096351
H       -0.1041922532    0.1175819799    1.1975197184
H       -2.4155761880   -0.6775113104    0.9831581101
H       -1.3777070249   -1.7597763490    0.3013094783
21   
torsion grid (-30,)
C       -1.4526216304    4.0802220448    0.3852313163
C       -1.6527362308    3.9776784045   -0.9671704953
C       -1.0811456455    2.8378611283    0.9981414287
C       -1.0194264407    1.8111690794    0.0806202804
C        1.7356375539   -0.0390246082    1.2290418181
C        0.9321379689    0.2975991119    0.2151152033
C       -0.7502020495    2.6922075664    2.4621155777
C       -0.5745597678    0.3895735799    0.3186048208
N       -1.1815168824   -0.4964982417   -0.6890224281
S       -1.3971236296    2.3604292905   -1.5322985073
H       -1.5688759512    5.0082327797    0.9375264109
H       -1.9536194619    4.7547090571   -1.6587344755
H        2.8158288854   -0.0747524429    1.1116809852
H        1.3386054142   -0.2852471369    2.2126116406
H        1.3420349940    0.5439605744   -0.7639805049
H       -1.2520901619    1.8274569841    2.9095666044
H        0.3270382144    2.5552750941    2.6128346012
H       -1.0573452079    3.5808606036    3.0206967025
H       -0.8551296672    0.1238076551    1.3506101657
H       -2.1952311465   -0.4956696895   -0.5842913591
H       -0.8564499568   -1.4507844165   -0.5434981079
21   
torsion grid (-15,)
C       -1.4761258001    4.0867218244    0.3879794965
C       -1.8269059986    3.9637320484   -0.9317110275
C       -1.0192488467    2.8580567106    0.9690618194
C       -1.0296593967    1.8239495243    0.0568412541
C        1.6125909681   -0.0674737592    1.3933780440
C        0.9023922026    0.3080560422    0.3252056150
C       -0.5637533902    2.7258951562    2.4000841029
C       -0.6086240332    0.3913905478    0.2879543270
N       -1.0939146348   -0.4583632103   -0.8126300547
S       -1.6034413820    2.3452313855   -1.5058738466
H       -1.5432859348    5.0200058321    0.9396211936
H       -2.2052726033    4.7296895402   -1.5970064020
H        2.6990651481   -0.0985473896    1.3716139985
H        1.1301284136   -0.3504762699    2.3275470877
H        1.3978552098    0.5933687903   -0.6024309012
H       -1.0156185769    1.8561521756    2.8900020009
H        0.5229622340    2.5993464081    2.4625805021
H       -0.8360471262    3.6132578024    2.9784607172
H       -0.9890876336    0.0815137110    1.2753303654
H       -2.1111700334   -0.5180490786   -0.7831351396
H       -0.7308241944   -1.4026079568   -0.6946851366
21   
torsion grid (0,)
C       -1.5094791888    4.1001270536    0.3881154512
C       -2.0045695123    3.9518132551   -0.8815768301
C       -0.9590790771    2.8910765530    0.9278189732
C       -1.0274718761    1.8477594623    0.0274261116
C        1.4837192856   -0.1336659007    1.5367019264
C        0.8752734526    0.3145084242    0.4349074107
C       -0.3944539125    2.7868324194    2.3224091413
C       -0.6258075315    0.4059641233    0.2564681545
N       -0.9805374084   -0.4127117053   -0.9174085192
S       -1.7943726855    2.3351277523   -1.4620472131
H       -1.5383064435    5.0385511673    0.9343480699
H       -2.4655653795    4.7012612883   -1.5125767397
H        2.5675128595   -0.1795764056    1.6087674610
H        0.9180793790   -0.4612627286    2.4075036184
H        1.4547953545    0.6446624825   -0.4267039531
H       -0.7820232748    1.9080628582    2.8493835936
H        0.6966078757    2.6944489970    2.3112254281
H       -0.6554892096    3.6710730002    2.9107956760
H       -1.1036461855    0.0593580133    1.1879812422
H       -1.9933408475   -0.5174783403   -0.9759943970
H       -0.5921788488   -1.3468661844   -0.7990047558
21   
torsion grid (15,)
C       -1.5551934171    4.0745318296    0.4119185730
C       -2.1933344253    3.8956439175   -0.7874625843
C       -0.9042821082    2.8915033995    0.8954484993
C       -1.0334486183    1.8343669894    0.0163729078
C        1.3493020275   -0.2938055140    1.6472649898
C        0.8510988005    0.2920641734    0.5553196185
C       -0.2058651086    2.8382582680    2.2330104586
C       -0.6240025558    0.3884463664    0.2270311793
N       -0.8280325496   -0.3877162241   -1.0133909094
S       -1.9941658844    2.2812120735   -1.3718855395
H       -1.5483472617    5.0190438330    0.9481525292
H       -2.7420423509    4.6234144271   -1.3718042277
H        2.4208463334   -0.3572157101    1.8195535880
H        0.7017026116   -0.7195533708    2.4122529199
H        1.5123472222    0.7162975688   -0.1995665672
H       -0.5284119624    1.9748346511    2.8235426679
H        0.8802173707    2.7605115078    2.1250381135
H       -0.4254183782    3.7402038368    2.8115175347
H       -1.1949819433   -0.0103838807    1.0823780567
H       -1.8257317368   -0.5147185527   -1.1853936278
H       -0.4359823482   -1.3186068736   -0.8813327418
21   
torsion grid (30,)
C       -1.6118128742    4.0639439465    0.4382165666
C       -2.3845166965    3.8403547593   -0.6696838002
C       -0.8700855622    2.9121205023    0.8678184829
C       -1.0732452747    1.8266311747    0.0380416876
C        1.1705527788   -0.4235217068    1.7800624987
C        0.7995309705    0.2911470482    0.7146804784
C       -0.0130006525    2.9433245319    2.1127193116
C       -0.6217710768    0.3859404508    0.2065907912
N       -0.6347976213   -0.3165504675   -1.0967549645
S       -2.2089129077    2.2170092096   -1.2331753609
H       -1.5662580433    5.0221693469    0.9473135220
H       -3.0198756851    4.5376771892   -1.2007032107
H        2.2127417705   -0.4983356099    2.0803632551
H        0.4418985808   -0.9493772157    2.3953256030
H        1.5399431656    0.8077858866    0.1049988118
H       -0.2503009186    2.1210641172    2.7929098741
H        1.0533012181    2.8674492711    1.8802978720
H       -0.1719731952    3.8819922937    2.6513190840
H       -1.2840275139   -0.0915259822    0.9487523333
H       -1.5928141918   -0.4132309803   -1.4349563066
H       -0.2881711969   -1.2633806998   -0.9491724114
21   
torsion grid (45,)
C       -1.6470709653    4.0121186955    0.4430174114
C       -2.5400522646    3.7289164781   -0.5530311781
C       -0.8284386450    2.8947791924    0.8297348093
C       -1.1127244218    1.7652832050    0.0882822064
C        0.9636811940   -0.5656421839    1.9357996252
C        0.7400196953    0.2279609808    0.8850551131
C        0.1913208449    3.0329127895    1.9385329481
C       -0.5917814645    0.3410193815    0.1828384192
N       -0.3882076947   -0.2250378193   -1.1723622378
S       -2.4014790883    2.0819175731   -1.0564064085
H       -1.5630850699    4.9922438706    0.9029864932
H       -3.2579508235    4.3873059768   -1.0251485351
H        1.9518617343   -0.6573573338    2.3797859047
H        0.1622343480   -1.1435286073    2.3936102179
H        1.5539459549    0.7884791870    0.4279869112
H        0.1315123322    2.2156728628    2.6591873726
H        1.2153383658    3.0512185875    1.5513854343
H        0.0274119478    3.9713483610    2.4760887477
H       -1.3281693673   -0.2390112656    0.7648638557
H       -1.2537862828   -0.1966205270   -1.7102757723
H       -0.1400452439   -1.2083537853   -1.0705714177
21   
torsion grid (60,)
C       -1.6789196207    3.9670220226    0.4319128995
C       -2.6697090316    3.6070399761   -0.4381096095
C       -0.7861656254    2.8936805829    0.7813525337
C       -1.1292602069    1.7132257972    0.1555838313
C        0.7294097217   -0.6416060707    2.1265115856
C        0.6825487948    0.1678896967    1.0647902362
C        0.3743994030    3.1322464258    1.7207311917
C       -0.5260547809    0.3199113884    0.1745770457
N       -0.1063070048   -0.0664941349   -1.1946718764
S       -2.5468662164    1.9339884295   -0.8562996760
H       -1.5732186591    4.9733020818    0.8263467681
H       -3.4615007646    4.2189143805   -0.8510586497
H        1.6356391407   -0.7533274570    2.7167265739
H       -0.1403408242   -1.2134647824    2.4460615135
H        1.5674782027    0.7158055303    0.7469562270
H        0.4538653548    2.3566572932    2.4840316626
H        1.3275897363    3.1660283883    1.1819478170
H        0.2508383824    4.0941438359    2.2266477228
H       -1.3042722458   -0.3562931407    0.5665388319
H       -0.8570948295    0.1014287942   -1.8619594346
H        0.0923056089   -1.0660503599   -1.2055032574
21   
torsion grid (75,)
C       -1.7406020321    3.9423779283    0.5059765421
C       -2.8314289794    3.5342677452   -0.2122260340
C       -0.7812015456    2.9006649294    0.7534500214
C       -1.1834043576    1.6931608502    0.2228168001
C        0.4720556843   -0.7014542283    2.2007943801
C        0.5863000563    0.1114230781    1.1467468481
C        0.5065513021    3.1760654918    1.4939057606
C       -0.5073747373    0.3386856441    0.1302725648
N        0.0764270674    0.1714660793   -1.2224355402
S       -2.7240201950    1.8526440908   -0.5987458848
H       -1.6101231771    4.9617014346    0.8572257508
H       -3.6908492638    4.1152516910   -0.5216616821
H        1.2955896127   -0.8497920632    2.8948798661
H       -0.4516767823   -1.2381950938    2.4110392349
H        1.5257047777    0.6214130408    0.9448557551
H        0.6200835866    2.5299318851    2.3680225597
H        1.3792607165    3.0227484771    0.8510746952
H        0.5276409885    4.2143824876    1.8367849944
H       -1.2878620830   -0.4135223515    0.3315366642
H       -0.6185335755    0.4032291546   -1.9300545646
H        0.3306746246   -0.8070060132   -1.3551872892
21   
torsion grid (90,)
C       -1.7831280393    3.9397061272    0.5350985463
C       -2.9416577494    3.4751382831   -0.0296596584
C       -0.7739879681    2.9321587031    0.7017429443
C       -1.2079757524    1.6937759801    0.2785480439
C        0.2485986630   -0.7998015047    2.2375482091
C        0.4888258209    0.0811868630    1.2623480600
C        0.5960888144    3.2456493861    1.2521809147
C       -0.4729308692    0.3766201521    0.1336286853
N        0.2727039446    0.3756756534   -1.1460026358
S       -2.8321460813    1.7824162988   -0.3634450484
H       -1.6396743396    4.9766552423    0.8245317941
H       -3.8487046002    4.0222328213   -0.2529496771
H        0.9729522099   -0.9864391005    3.0264275308
H       -0.6859446566   -1.3563708671    2.2871852169
H        1.4373854273    0.6117224527    1.2256232199
H        0.7482367786    2.7941801427    2.2378228645
H        1.3833656108    2.8769110550    0.5883949952
H        0.7248146503    4.3266515311    1.3570351832
H       -1.2403161737   -0.4144170080    0.1602281869
H       -0.3553341919    0.6384391572   -1.9037272501
H        0.6055838834   -0.5686966146   -1.3394721191
21   
torsion grid (105,)
C       -1.6466846302    4.0426861796    0.4615580792
C       -2.3364554118    3.8263606970   -0.7030042425
C       -0.9878393604    2.8727054745    0.9681820668
C       -1.2221992861    1.7677594643    0.1769243087
C       -1.6252432452   -1.3280301697    1.8366453846
C       -0.8407865581   -0.2686173031    1.6187933475
C       -0.1272370217    2.8915879237    2.2075724764
C       -0.6470291530    0.3693276584    0.2618789816
N        0.7976971491    0.4194536814   -0.0550937332
S       -2.2027600505    2.1776035122   -1.2072258499
H       -1.5963056846    5.0120195305    0.9491705179
H       -2.9158781288    4.5331827595   -1.2831858695
H       -1.7359636648   -1.7583404860    2.8288816738
H       -2.1925121288   -1.7940637082    1.0323843613
H       -0.2770343290    0.1698934877    2.4385946180
H       -0.6841100058    2.5513499348    3.0883687441
H        0.7482573155    2.2493953472    2.0861796144
H        0.2222397364    3.9077053277    2.4135977090
H       -1.2046882093   -0.2504907107   -0.4591543078
H        0.9302425487    0.9032757908   -0.9418203991
H        1.1509536050   -0.5305539487   -0.1657661271
21   
torsion grid (120,)
C       -1.6750563442    4.0175923422    0.4796734254
C       -2.4772294970    3.7541875597   -0.5997838625
C       -0.9211820524    2.8817684341    0.9296734823
C       -1.1834790175    1.7603529397    0.1710161100
C       -1.7074681445   -1.3765758074    1.7182660663
C       -0.9471027162   -0.2846781741    1.5969380859
C        0.0266103113    2.9404488854    2.1020822455
C       -0.6062298270    0.3639780692    0.2738705451
N        0.8640164180    0.4241662359    0.1266255421
S       -2.3313594711    2.1031624026   -1.0961373789
H       -1.6118336710    4.9963976469    0.9466283597
H       -3.1379113959    4.4298964875   -1.1279024282
H       -1.9337074687   -1.8084058552    2.6900004551
H       -2.1397634891   -1.8693911171    0.8487647185
H       -0.5222551993    0.1892049758    2.4795887773
H       -0.5051770280    2.7761227319    3.0473846365
H        0.8111640290    2.1873965526    2.0095362148
H        0.5004523094    3.9255197512    2.1634721817
H       -1.0770758541   -0.2453955144   -0.5143972256
H        1.0945873092    0.8974076675   -0.7458674098
H        1.2334374755   -0.5243331049    0.0706850151
21   
torsion grid (135,)
C       -1.6924992976    3.9883107789    0.4959851361
C       -2.5912159368    3.6855528930   -0.4920139926
C       -0.8641382782    2.8803397546    0.8844020848
C       -1.1538604786    1.7457394380    0.1549267229
C       -1.8571240839   -1.4188561820    1.5511221899
C       -1.0870250696   -0.3272723791    1.5300806996
C        0.1525503282    2.9841674906    1.9944801014
C       -0.5945410369    0.3416368532    0.2651535214
N        0.8816487238    0.3816747207    0.2932213927
S       -2.4459663948    2.0322761036   -0.9823891407
H       -1.6137354275    4.9745643521    0.9447711702
H       -3.3190275989    4.3349515039   -0.9618241378
H       -2.1959596163   -1.8590236047    2.4856399571
H       -2.1852405193   -1.9021371259    0.6321052899
H       -0.7692376177    0.1439674877    2.4590246859
H       -0.3456014515    3.0047758654    2.9718316191
H        0.8476361833    2.1445798666    1.9735222613
H        0.7267549737    3.9131023186    1.9058903556
H       -0.9812680789   -0.2401995792   -0.5869550395
H        1.2214954634    0.8556095474   -0.5427870132
H        1.2399277681   -0.5723258344    0.2735734455
21   
torsion grid (150,)
C       -1.8098678284    3.9247471066    0.4429509002
C       -2.7855984698    3.5383552318   -0.4346019570
C       -0.8993079527    2.8703299600    0.8019237828
C       -1.1989681087    1.6926328044    0.1473629505
C       -1.9962381217   -1.5167912248    1.3629020938
C       -1.2482260924   -0.4139662345    1.4595918720
C        0.1964843106    3.0924770622    1.8164096368
C       -0.6191861467    0.2965534873    0.2796333093
N        0.8389840461    0.3497713126    0.4971481959
S       -2.6173547081    1.8695230084   -0.8602418354
H       -1.7322766088    4.9334213153    0.8391974752
H       -3.5830573483    4.1346292970   -0.8598119170
H       -2.4362392462   -1.9857155298    2.2394254121
H       -2.2044659630   -1.9804927252    0.3999006682
H       -1.0507795248    0.0425975273    2.4289140736
H       -0.2362412326    3.3882568911    2.7796838468
H        0.7973600442    2.1956710022    1.9593712172
H        0.8582267638    3.9072547118    1.4986629007
H       -0.8881839678   -0.2655973952   -0.6292482152
H        1.2807427776    0.8275788852   -0.2879535287
H        1.2017602487   -0.6024049646    0.5172506839
21   
torsion grid (165,)
C       -1.8080896984    3.9658205175    0.4506853293
C       -2.8678493043    3.5179161986   -0.2875949025
C       -0.8451994340    2.9441340653    0.7705640442
C       -1.1965018138    1.7244245693    0.2268726804
C       -1.9817107795   -1.6098409877    1.1101670059
C       -1.3202387013   -0.4791620721    1.3733227623
C        0.3642493792    3.2672874620    1.6177082892
C       -0.5823147132    0.3384704734    0.3332292662
N        0.8338887474    0.4057340474    0.7361174767
S       -2.7251245721    1.8268947121   -0.6231297157
H       -1.7042808800    4.9964951096    0.7780456216
H       -3.7211227958    4.0776579468   -0.6493736100
H       -2.5013337899   -2.1605967626    1.8901798243
H       -2.0363052668   -2.0156176101    0.1011469773
H       -1.2756163728   -0.0798837509    2.3861103390
H        0.0797564526    3.9490641757    2.4263663175
H        0.8090382720    2.3714848987    2.0469235831
H        1.1331185074    3.7779194291    1.0238687675
H       -0.7182872684   -0.1624287823   -0.6394089521
H        1.3640697283    0.9176591018    0.0310407673
H        1.2057729732   -0.5428380446    0.7595221641
21   
torsion grid (180,)
C       -1.7755431640    4.0074968677    0.5101258739
C       -2.9173952209    3.5211011331   -0.0634531441
C       -0.7876019746    2.9991863436    0.7920634315
C       -1.2126600893    1.7447521437    0.4013329608
C       -1.9532768685   -1.6925543231    0.8846119386
C       -1.3953797076   -0.5619875772    1.3273940136
C        0.5288597549    3.3732084347    1.4374146145
C       -0.5670504004    0.3691971681    0.4673312045
N        0.7861754998    0.4299095877    1.0491064173
S       -2.8289848747    1.8069814971   -0.2732564941
H       -1.6275902410    5.0581504293    0.7426996730
H       -3.8066070256    4.0635713664   -0.3587807985
H       -2.5410092469   -2.3316258541    1.5387568172
H       -1.8507035836   -2.0096039025   -0.1520428894
H       -1.5088147338   -0.2507363553    2.3653265679
H        0.4293050621    4.3343712555    1.9506050440
H        0.8554316076    2.6220104839    2.1556881054
H        1.3237944309    3.4909035538    0.6900397383
H       -0.5623183526   -0.0454333072   -0.5548462930
H        1.4012313552    0.9574260366    0.4305642587
H        1.1540634385   -0.5198538068    1.0860900119
