
  -OEChem-05262117483D

 48 51  0     0  0  0  0  0  0999 V2000
    4.4508   -1.5494   -0.7689 C   0  0  0  0  0  0  0  0  0  0  0  0
    5.2809   -3.0495    0.9245 C   0  0  0  0  0  0  0  0  0  0  0  0
    2.4266   -3.0546    1.9545 C   0  0  0  0  0  0  0  0  0  0  0  0
    2.4107   -0.7297    1.3212 C   0  0  0  0  0  0  0  0  0  0  0  0
    5.6107   -1.7352   -1.5227 C   0  0  0  0  0  0  0  0  0  0  0  0
    6.4498   -3.2407    0.1884 C   0  0  0  0  0  0  0  0  0  0  0  0
    1.2592   -2.8662    2.6936 C   0  0  0  0  0  0  0  0  0  0  0  0
    1.2465   -0.5209    2.0624 C   0  0  0  0  0  0  0  0  0  0  0  0
    7.9617   -1.9433   -6.3441 C   0  0  0  0  0  0  0  0  0  0  0  0
    8.2498   -3.8020   -4.8032 C   0  0  0  0  0  0  0  0  0  0  0  0
   -1.7622    2.8014    4.9988 C   0  0  0  0  0  0  0  0  0  0  0  0
   -1.1756    0.6237    5.9074 C   0  0  0  0  0  0  0  0  0  0  0  0
    8.2022   -2.7944   -7.4245 C   0  0  0  0  0  0  0  0  0  0  0  0
    8.4997   -4.6510   -5.8847 C   0  0  0  0  0  0  0  0  0  0  0  0
   -1.9149    3.3057    6.2918 C   0  0  0  0  0  0  0  0  0  0  0  0
   -1.3380    1.1270    7.2010 C   0  0  0  0  0  0  0  0  0  0  0  0
    4.2611   -2.1983    0.4634 C   0  0  0  0  0  0  0  0  0  0  0  0
    3.0230   -1.9929    1.2515 C   0  0  0  0  0  0  0  0  0  0  0  0
    6.6075   -2.5791   -1.0302 C   0  0  0  0  0  0  0  0  0  0  0  0
    0.6755   -1.5995    2.7400 C   0  0  0  0  0  0  0  0  0  0  0  0
    7.9895   -2.4512   -5.0441 C   0  0  0  0  0  0  0  0  0  0  0  0
   -1.3968    1.4664    4.8160 C   0  0  0  0  0  0  0  0  0  0  0  0
    8.4740   -4.1433   -7.1849 C   0  0  0  0  0  0  0  0  0  0  0  0
   -1.7052    2.4613    7.3844 C   0  0  0  0  0  0  0  0  0  0  0  0
    7.7849   -2.8618   -1.7367 O   0  0  0  0  0  0  0  0  0  0  0  0
   -0.4650   -1.4760    3.5458 O   0  0  0  0  0  0  0  0  0  0  0  0
    7.6855   -1.5441   -4.0225 O   0  0  0  0  0  0  0  0  0  0  0  0
   -1.2125    1.0556    3.4908 O   0  0  0  0  0  0  0  0  0  0  0  0
    8.5465   -1.6258   -2.5795 S   0  0  0  0  0  0  0  0  0  0  0  0
   -1.7193   -0.4830    3.0371 S   0  0  0  0  0  0  0  0  0  0  0  0
    8.7850   -5.2171   -8.5398 Cl  0  0  0  0  0  0  0  0  0  0  0  0
   -1.9031    3.0886    9.0132 Cl  0  0  0  0  0  0  0  0  0  0  0  0
    3.6633   -0.9158   -1.1672 H   0  0  0  0  0  0  0  0  0  0  0  0
    5.1777   -3.5407    1.8879 H   0  0  0  0  0  0  0  0  0  0  0  0
    2.8584   -4.0497    1.8946 H   0  0  0  0  0  0  0  0  0  0  0  0
    2.8704    0.1168    0.8189 H   0  0  0  0  0  0  0  0  0  0  0  0
    5.7280   -1.2481   -2.4846 H   0  0  0  0  0  0  0  0  0  0  0  0
    7.2465   -3.8834    0.5511 H   0  0  0  0  0  0  0  0  0  0  0  0
    0.7870   -3.6888    3.2225 H   0  0  0  0  0  0  0  0  0  0  0  0
    0.8034    0.4668    2.1279 H   0  0  0  0  0  0  0  0  0  0  0  0
    7.7553   -0.8888   -6.4997 H   0  0  0  0  0  0  0  0  0  0  0  0
    8.2502   -4.1911   -3.7910 H   0  0  0  0  0  0  0  0  0  0  0  0
   -1.9259    3.4325    4.1307 H   0  0  0  0  0  0  0  0  0  0  0  0
   -0.8729   -0.4065    5.7558 H   0  0  0  0  0  0  0  0  0  0  0  0
    8.1871   -2.4118   -8.4400 H   0  0  0  0  0  0  0  0  0  0  0  0
    8.7034   -5.7036   -5.7158 H   0  0  0  0  0  0  0  0  0  0  0  0
   -2.2018    4.3406    6.4479 H   0  0  0  0  0  0  0  0  0  0  0  0
   -1.1697    0.4861    8.0605 H   0  0  0  0  0  0  0  0  0  0  0  0
  1  5  1  0  0  0  0
  1 17  2  0  0  0  0
  1 33  1  0  0  0  0
  2  6  2  0  0  0  0
  2 17  1  0  0  0  0
  2 34  1  0  0  0  0
  3  7  2  0  0  0  0
  3 18  1  0  0  0  0
  3 35  1  0  0  0  0
  4  8  1  0  0  0  0
  4 18  2  0  0  0  0
  4 36  1  0  0  0  0
  5 19  2  0  0  0  0
  5 37  1  0  0  0  0
  6 19  1  0  0  0  0
  6 38  1  0  0  0  0
  7 20  1  0  0  0  0
  7 39  1  0  0  0  0
  8 20  2  0  0  0  0
  8 40  1  0  0  0  0
  9 13  2  0  0  0  0
  9 21  1  0  0  0  0
  9 41  1  0  0  0  0
 10 14  1  0  0  0  0
 10 21  2  0  0  0  0
 10 42  1  0  0  0  0
 11 15  2  0  0  0  0
 11 22  1  0  0  0  0
 11 43  1  0  0  0  0
 12 16  1  0  0  0  0
 12 22  2  0  0  0  0
 12 44  1  0  0  0  0
 13 23  1  0  0  0  0
 13 45  1  0  0  0  0
 14 23  2  0  0  0  0
 14 46  1  0  0  0  0
 15 24  1  0  0  0  0
 15 47  1  0  0  0  0
 16 24  2  0  0  0  0
 16 48  1  0  0  0  0
 17 18  1  0  0  0  0
 19 25  1  0  0  0  0
 20 26  1  0  0  0  0
 21 27  1  0  0  0  0
 22 28  1  0  0  0  0
 23 31  1  0  0  0  0
 24 32  1  0  0  0  0
 25 29  1  0  0  0  0
 26 30  1  0  0  0  0
 27 29  1  0  0  0  0
 28 30  1  0  0  0  0
M  END
$$$$
