20
0 1 C4H10NO3PS
C                    -0.517599765820    -1.270135607306     1.392583467280
C                    -0.915576752997    -2.717581601279     1.175806753194
C                     1.278579809767     1.046078340861    -1.941650941144
C                     0.788544683764     2.232308054151     2.820095376894
N                    -0.416676543438    -0.511450885385     0.229821091083
O                    -0.297222799872    -0.791730917959     2.495651648388
O                    -1.485238496832     1.929626674932     0.702309431044
O                     0.016991938444     1.417969526854    -1.346776263351
P                    -0.285711004746     1.208851065361     0.226621976714
S                     1.506004326056     1.699258229402     1.212886470226
H                    -0.363075924472    -3.171801161688     0.347458380955
H                    -1.984668560949    -2.771629766579     0.942053663765
H                    -0.728982042129    -3.276365276741     2.092752789266
H                     1.142799441097     1.134744109801    -3.019768951238
H                     1.548168065513     0.016563135567    -1.684362965151
H                     2.065629335073     1.729161552026    -1.611823876998
H                     1.621094834183     2.659394476426     3.382812061431
H                     0.377018346946     1.365767242793     3.335471455406
H                     0.019977947858     2.985420645880     2.649942090834
H                    -0.752725435097    -0.930408346645    -0.633064169397
