48
0 1 C24Cl2H16O4S2
C                     3.919454496723    -4.424053907798    -0.638840053983
C                     4.601782582592    -3.411148643795     1.441928400783
C                     1.653236740453    -2.965630376011     1.920389352251
C                     1.511362933244    -2.609546528233    -0.461708227582
C                     5.204510181398    -4.933145022664    -0.817994803149
C                     5.889191269610    -3.920508702395     1.277214511397
C                     0.393207073760    -2.393262748010     2.085705598765
C                     0.247302872995    -2.041109924892    -0.309892148979
C                     6.396700943673    -2.748519708771    -3.280055605147
C                     6.744977437888    -1.634684909302    -1.152881267105
C                     1.301987857846     0.730573468505     3.389305187517
C                     1.469980746193     0.907825899684     0.975386102340
C                     5.242853356647    -1.990945433476    -3.492754553732
C                     5.586801059567    -0.886071699725    -1.357728919252
C                     2.684179491232     0.550183905484     3.476588872585
C                     2.848219812115     0.715355638994     1.059385718931
C                     3.597768358287    -3.643315482201     0.484060286661
C                     2.241387941321    -3.071334259399     0.648832628963
C                     6.184407360706    -4.663873659399     0.134950724639
C                    -0.293782740536    -1.920659354339     0.969657674366
C                     7.128853588102    -2.580309619638    -2.103718944478
C                     0.701405776289     0.888238384064     2.139279674202
C                     4.837907708867    -1.076910914542    -2.518789752587
C                     3.444186912759     0.526689612104     2.306189511427
O                     7.482062781227    -5.142651185841    -0.120623553291
O                    -1.531518684645    -1.290824557664     1.192247807578
O                     8.243000453955    -3.420892156229    -1.955346079107
O                    -0.696727701577     1.011183062063     2.148040515139
S                     8.638636948539    -3.952325884361    -0.406141074974
S                    -1.562498665930     0.359418336260     0.857944957292
Cl                    3.354209720980    -0.156570640589    -2.752680195253
Cl                    5.180566949948     0.245491615822     2.401700203462
H                     3.157032317873    -4.640805523009    -1.381133395384
H                     4.389342549831    -2.787083079948     2.304314700071
H                     2.183172198564    -3.337585237899     2.792212447569
H                     1.953578399677    -2.651968728424    -1.452157623812
H                     5.464594832491    -5.514995553906    -1.696546032152
H                     6.668285631574    -3.707583742222     2.003228753099
H                    -0.054021754065    -2.285589177084     3.068774560438
H                    -0.295216339809    -1.654637657741    -1.167659255103
H                     6.720198625038    -3.488712793449    -4.005273144100
H                     7.311943299007    -1.508364101867    -0.237850307484
H                     0.680712417885     0.723225213214     4.279500654118
H                     1.001919878491     1.025718734523     0.005008514129
H                     4.657235956807    -2.124700873798    -4.396687069131
H                     5.278468517539    -0.169500440135    -0.606259724394
H                     3.159693714111     0.411291345095     4.442263266041
H                     3.438811599446     0.706415301147     0.151477188225
