14
0 1 C3H6N4S
C                     0.340090720736    -3.254244674482     0.800242865687
C                     0.381866504505    -2.012942800946     0.204000106051
C                     0.802518184815    -0.706488507522     0.833496213436
N                    -0.039313262911    -4.282461929789    -0.025131906344
N                    -0.303218626382    -3.933002608089    -1.229465809199
N                     2.033793832992     0.142899098638    -1.027200705885
N                     2.089727657781    -0.180785816208     0.367913053978
S                    -0.087635529704    -2.217288216294    -1.434251738115
H                     0.570277647899    -3.468383037998     1.838204167897
H                     0.050824131977     0.064652839559     0.650148142341
H                     0.878760830804    -0.849890171048     1.916382687001
H                     2.607771826622     0.970211008516    -1.174303397781
H                     2.403745796180    -0.608679027349    -1.610863674366
H                     2.824960917925    -0.861547728037     0.562368099633
