
  -OEChem-05262117483D

 13 12  0     0  0  0  0  0  0999 V2000
   -1.2503    2.6020   -2.0818 C   0  0  0  0  0  0  0  0  0  0  0  0
   -0.1722    0.2441    0.0080 C   0  0  0  0  0  0  0  0  0  0  0  0
    0.3787   -1.2377    1.7729 C   0  0  0  0  0  0  0  0  0  0  0  0
    0.0810    0.4798   -1.5076 C   0  0  0  0  0  0  0  0  0  0  0  0
   -0.6345    1.6546   -1.9035 N   0  3  0  0  0  0  0  0  0  0  0  0
   -0.8652    0.9713    0.6775 O   0  0  0  0  0  0  0  0  0  0  0  0
    0.4895   -0.8413    0.3624 O   0  0  0  0  0  0  0  0  0  0  0  0
   -1.8258    3.4969   -2.2725 H   0  0  0  0  0  0  0  0  0  0  0  0
    0.9830   -2.1378    1.8538 H   0  0  0  0  0  0  0  0  0  0  0  0
   -0.6669   -1.4366    2.0084 H   0  0  0  0  0  0  0  0  0  0  0  0
    0.7689   -0.4374    2.4019 H   0  0  0  0  0  0  0  0  0  0  0  0
   -0.2793   -0.3606   -2.1073 H   0  0  0  0  0  0  0  0  0  0  0  0
    1.1431    0.6385   -1.7140 H   0  0  0  0  0  0  0  0  0  0  0  0
  1  5  3  0  0  0  0
  1  8  1  0  0  0  0
  2  4  1  0  0  0  0
  2  6  2  0  0  0  0
  2  7  1  0  0  0  0
  3  7  1  0  0  0  0
  3  9  1  0  0  0  0
  3 10  1  0  0  0  0
  3 11  1  0  0  0  0
  4  5  1  0  0  0  0
  4 12  1  0  0  0  0
  4 13  1  0  0  0  0
M  CHG  1   5   1
M  END
$$$$
