20
0 1 C4Cl3H7NO4P
C                    -1.935074713069    -0.814475092060     0.206929456460
C                     2.206270355176     1.885799646833    -1.177744584264
C                     1.398839643686    -1.681805626321     0.689844444884
C                    -3.062950785314    -0.428411873601     1.234319650121
N                    -0.958460051750     0.141053852412     0.071050105193
O                    -1.933280236106    -1.890200406228    -0.348289967066
O                     0.048074289060     0.158150456817    -2.475481990210
O                     1.182681574801     1.242878329489    -0.374479762155
O                     1.110656566433    -1.317242565717    -0.678236117252
P                     0.346428559769     0.033091737029    -1.040680050673
Cl                   -3.712711839818     1.215577421010     0.855730763424
Cl                   -4.371338528221    -1.617150992851     1.188550933250
Cl                   -2.301184669787    -0.405701032373     2.878392517689
H                     2.540839587978     2.747822253207    -0.601067495812
H                     1.788780529867     2.202262753282    -2.135446071066
H                     3.041088220447     1.199150014106    -1.341544849196
H                     2.109998780397    -2.505924046985     0.636683937313
H                     0.484209758056    -2.014994659122     1.185312331678
H                     1.840680066355    -0.840722879679     1.231077915820
H                    -1.076975691124     1.035243797313     0.537747860026
