
  -OEChem-05262117483D

 48 51  0     0  0  0  0  0  0999 V2000
    4.4918   -1.6568   -1.2982 C   0  0  0  0  0  0  0  0  0  0  0  0
    4.8561   -3.1912    0.5263 C   0  0  0  0  0  0  0  0  0  0  0  0
    3.1219   -1.2852    2.1288 C   0  0  0  0  0  0  0  0  0  0  0  0
    1.8571   -1.0541    0.0879 C   0  0  0  0  0  0  0  0  0  0  0  0
    5.5368   -2.2482   -2.0095 C   0  0  0  0  0  0  0  0  0  0  0  0
    5.8974   -3.7966   -0.1765 C   0  0  0  0  0  0  0  0  0  0  0  0
    2.0860   -0.6920    2.8498 C   0  0  0  0  0  0  0  0  0  0  0  0
    0.8163   -0.4515    0.7962 C   0  0  0  0  0  0  0  0  0  0  0  0
    8.9612   -0.7220   -3.0615 C   0  0  0  0  0  0  0  0  0  0  0  0
   10.6308   -2.4106   -3.5755 C   0  0  0  0  0  0  0  0  0  0  0  0
   -0.7469    3.1253    0.4746 C   0  0  0  0  0  0  0  0  0  0  0  0
   -1.9457    3.7764    2.4848 C   0  0  0  0  0  0  0  0  0  0  0  0
    9.2835   -0.0402   -4.2378 C   0  0  0  0  0  0  0  0  0  0  0  0
   10.9493   -1.7361   -4.7556 C   0  0  0  0  0  0  0  0  0  0  0  0
   -1.8152    3.5673   -0.3102 C   0  0  0  0  0  0  0  0  0  0  0  0
   -3.0180    4.2111    1.7038 C   0  0  0  0  0  0  0  0  0  0  0  0
    4.1345   -2.1130   -0.0178 C   0  0  0  0  0  0  0  0  0  0  0  0
    3.0286   -1.4781    0.7383 C   0  0  0  0  0  0  0  0  0  0  0  0
    6.2303   -3.3173   -1.4437 C   0  0  0  0  0  0  0  0  0  0  0  0
    0.9374   -0.2789    2.1744 C   0  0  0  0  0  0  0  0  0  0  0  0
    9.6395   -1.8968   -2.7383 C   0  0  0  0  0  0  0  0  0  0  0  0
   -0.8186    3.2370    1.8629 C   0  0  0  0  0  0  0  0  0  0  0  0
   10.2732   -0.5557   -5.0767 C   0  0  0  0  0  0  0  0  0  0  0  0
   -2.9439    4.1035    0.3123 C   0  0  0  0  0  0  0  0  0  0  0  0
    7.2281   -3.9071   -2.2326 O   0  0  0  0  0  0  0  0  0  0  0  0
   -0.1644    0.2709    2.8449 O   0  0  0  0  0  0  0  0  0  0  0  0
    9.3172   -2.4996   -1.5167 O   0  0  0  0  0  0  0  0  0  0  0  0
    0.3085    2.8354    2.5893 O   0  0  0  0  0  0  0  0  0  0  0  0
    8.7569   -4.0870   -1.5607 S   0  0  0  0  0  0  0  0  0  0  0  0
    0.0925    1.6514    3.7668 S   0  0  0  0  0  0  0  0  0  0  0  0
   10.6767    0.2923   -6.5609 Cl  0  0  0  0  0  0  0  0  0  0  0  0
   -4.2936    4.6523   -0.6683 Cl  0  0  0  0  0  0  0  0  0  0  0  0
    3.9707   -0.8075   -1.7312 H   0  0  0  0  0  0  0  0  0  0  0  0
    4.5778   -3.5854    1.4997 H   0  0  0  0  0  0  0  0  0  0  0  0
    4.0267   -1.5818    2.6518 H   0  0  0  0  0  0  0  0  0  0  0  0
    1.7459   -1.2177   -0.9804 H   0  0  0  0  0  0  0  0  0  0  0  0
    5.8255   -1.8928   -2.9941 H   0  0  0  0  0  0  0  0  0  0  0  0
    6.4430   -4.6328    0.2501 H   0  0  0  0  0  0  0  0  0  0  0  0
    2.1726   -0.5362    3.9210 H   0  0  0  0  0  0  0  0  0  0  0  0
   -0.0960   -0.1317    0.3015 H   0  0  0  0  0  0  0  0  0  0  0  0
    8.1945   -0.3502   -2.3887 H   0  0  0  0  0  0  0  0  0  0  0  0
   11.1440   -3.3302   -3.3114 H   0  0  0  0  0  0  0  0  0  0  0  0
    0.1443    2.7009    0.0226 H   0  0  0  0  0  0  0  0  0  0  0  0
   -1.9878    3.8503    3.5671 H   0  0  0  0  0  0  0  0  0  0  0  0
    8.7676    0.8774   -4.5022 H   0  0  0  0  0  0  0  0  0  0  0  0
   11.7191   -2.1195   -5.4175 H   0  0  0  0  0  0  0  0  0  0  0  0
   -1.7736    3.4902   -1.3919 H   0  0  0  0  0  0  0  0  0  0  0  0
   -3.9013    4.6353    2.1704 H   0  0  0  0  0  0  0  0  0  0  0  0
  1  5  1  0  0  0  0
  1 17  2  0  0  0  0
  1 33  1  0  0  0  0
  2  6  2  0  0  0  0
  2 17  1  0  0  0  0
  2 34  1  0  0  0  0
  3  7  2  0  0  0  0
  3 18  1  0  0  0  0
  3 35  1  0  0  0  0
  4  8  1  0  0  0  0
  4 18  2  0  0  0  0
  4 36  1  0  0  0  0
  5 19  2  0  0  0  0
  5 37  1  0  0  0  0
  6 19  1  0  0  0  0
  6 38  1  0  0  0  0
  7 20  1  0  0  0  0
  7 39  1  0  0  0  0
  8 20  2  0  0  0  0
  8 40  1  0  0  0  0
  9 13  2  0  0  0  0
  9 21  1  0  0  0  0
  9 41  1  0  0  0  0
 10 14  1  0  0  0  0
 10 21  2  0  0  0  0
 10 42  1  0  0  0  0
 11 15  2  0  0  0  0
 11 22  1  0  0  0  0
 11 43  1  0  0  0  0
 12 16  1  0  0  0  0
 12 22  2  0  0  0  0
 12 44  1  0  0  0  0
 13 23  1  0  0  0  0
 13 45  1  0  0  0  0
 14 23  2  0  0  0  0
 14 46  1  0  0  0  0
 15 24  1  0  0  0  0
 15 47  1  0  0  0  0
 16 24  2  0  0  0  0
 16 48  1  0  0  0  0
 17 18  1  0  0  0  0
 19 25  1  0  0  0  0
 20 26  1  0  0  0  0
 21 27  1  0  0  0  0
 22 28  1  0  0  0  0
 23 31  1  0  0  0  0
 24 32  1  0  0  0  0
 25 29  1  0  0  0  0
 26 30  1  0  0  0  0
 27 29  1  0  0  0  0
 28 30  1  0  0  0  0
M  END
$$$$
