
  -OEChem-05262117483D

 20 19  0     0  0  0  0  0  0999 V2000
   -1.9351   -0.8145    0.2069 C   0  0  0  0  0  0  0  0  0  0  0  0
    2.2063    1.8858   -1.1777 C   0  0  0  0  0  0  0  0  0  0  0  0
    1.3988   -1.6818    0.6898 C   0  0  0  0  0  0  0  0  0  0  0  0
   -3.0630   -0.4284    1.2343 C   0  0  0  0  0  0  0  0  0  0  0  0
   -0.9585    0.1411    0.0711 N   0  0  0  0  0  0  0  0  0  0  0  0
   -1.9333   -1.8902   -0.3483 O   0  0  0  0  0  0  0  0  0  0  0  0
    0.0481    0.1582   -2.4755 O   0  0  0  0  0  0  0  0  0  0  0  0
    1.1827    1.2429   -0.3745 O   0  0  0  0  0  0  0  0  0  0  0  0
    1.1107   -1.3172   -0.6782 O   0  0  0  0  0  0  0  0  0  0  0  0
    0.3464    0.0331   -1.0407 P   0  0  0  0  0  0  0  0  0  0  0  0
   -3.7127    1.2156    0.8557 Cl  0  0  0  0  0  0  0  0  0  0  0  0
   -4.3713   -1.6172    1.1886 Cl  0  0  0  0  0  0  0  0  0  0  0  0
   -2.3012   -0.4057    2.8784 Cl  0  0  0  0  0  0  0  0  0  0  0  0
    2.5408    2.7478   -0.6011 H   0  0  0  0  0  0  0  0  0  0  0  0
    1.7888    2.2023   -2.1354 H   0  0  0  0  0  0  0  0  0  0  0  0
    3.0411    1.1991   -1.3415 H   0  0  0  0  0  0  0  0  0  0  0  0
    2.1100   -2.5059    0.6367 H   0  0  0  0  0  0  0  0  0  0  0  0
    0.4842   -2.0150    1.1853 H   0  0  0  0  0  0  0  0  0  0  0  0
    1.8407   -0.8407    1.2311 H   0  0  0  0  0  0  0  0  0  0  0  0
   -1.0770    1.0352    0.5377 H   0  0  0  0  0  0  0  0  0  0  0  0
  1  4  1  0  0  0  0
  1  5  1  0  0  0  0
  1  6  2  0  0  0  0
  2  8  1  0  0  0  0
  2 14  1  0  0  0  0
  2 15  1  0  0  0  0
  2 16  1  0  0  0  0
  3  9  1  0  0  0  0
  3 17  1  0  0  0  0
  3 18  1  0  0  0  0
  3 19  1  0  0  0  0
  4 11  1  0  0  0  0
  4 12  1  0  0  0  0
  4 13  1  0  0  0  0
  5 10  1  0  0  0  0
  5 20  1  0  0  0  0
  7 10  2  0  0  0  0
  8 10  1  0  0  0  0
  9 10  1  0  0  0  0
M  END
$$$$
