28
0 1 C11FH13O3
C                     1.341136954111    -2.887974255358    -1.300400204503
C                     1.124046522607    -3.195165997156    -2.646295938142
C                    -0.146429335062    -1.003139536710    -1.494194043233
C                     0.699646891784    -1.792159008851    -0.705214381093
C                    -0.377095654444    -1.288714405327    -2.845031106662
C                     0.263826182685    -2.405825769540    -3.397852981709
C                    -2.271359379635     1.918992239747    -7.273562874975
C                    -3.285940897121     0.896715109757    -6.771209418984
C                    -1.694278830603     1.193248857399    -5.155357079926
C                     0.896766090689    -1.475584246010     0.760050480676
C                    -0.892692743818    -0.066289230123    -4.849418260426
O                    -1.174555048003     1.745754072803    -6.366405696532
O                    -3.076919375601     0.937016923323    -5.355758749193
O                    -1.255575089975    -0.490205055389    -3.526635780825
F                     0.035256489870    -2.738458065581    -4.700010546686
H                     2.011936771567    -3.509523994327    -0.713025020847
H                     1.603010605183    -4.046624130863    -3.120849720258
H                    -0.652831420056    -0.137640908117    -1.074414833265
H                    -1.911789132473     1.728839579444    -8.287680870267
H                    -2.663332099926     2.941848702363    -7.204148948675
H                    -4.326389485682     1.163096821487    -6.967620335359
H                    -3.081148760956    -0.105601439971    -7.171260643241
H                    -1.614316867880     1.910038709512    -4.329293768968
H                     0.892315837350    -0.396447469243     0.940694181052
H                     0.094163047017    -1.912611590277     1.366206899095
H                     1.844787359944    -1.876562636367     1.129909499178
H                     0.175566784800     0.173116461477    -4.894344606555
H                    -1.117045095351    -0.841591661657    -5.586477658207
