36
0 1 C16H17N3
C                    -2.942145316773    -1.339477417336     6.511901811708
C                    -2.101724629032    -0.234031928776     6.681520813997
C                    -2.561817220380    -2.381062736755     5.657470744556
C                     2.060876201866    -0.488016627159     0.599267637116
C                     0.670250145213    -0.359568146329     0.800019653448
C                     2.913776475766    -0.813160250736     1.650134116257
C                    -0.886184970107    -0.164733871118     5.994573312710
C                    -1.343373854973    -2.320792056012     4.977457152804
C                     0.061084396540    -0.554099610464     2.045277634643
C                     2.338420525847    -1.018422761941     2.911494033913
C                     0.937080234085    -0.899506202037     3.090129183976
C                    -0.509528151740    -1.208817377940     5.144108079495
C                     1.992219205356    -1.409043656712     5.005607152575
C                    -1.431551738401    -0.388126819077     2.213500207067
C                     3.654482232618    -1.794903935711     6.830687371099
C                     2.170967451173    -1.745991403490     6.465871220910
N                     2.954682588540    -1.332462591313     4.117430131901
N                     0.736722634695    -1.149552827119     4.453129449095
N                     1.554276215178    -3.062290213402     6.750899063169
H                    -3.889027002905    -1.389486854538     7.042613937920
H                    -2.395191657153     0.578125753400     7.341132840950
H                    -3.210441803322    -3.242824104215     5.525257490670
H                     2.467373137930    -0.320812361026    -0.394702544433
H                     0.040662696549    -0.091019019996    -0.045267072751
H                     3.987451297036    -0.904268389466     1.514432097565
H                    -0.231342655484     0.695221292811     6.102269119662
H                    -1.026489370003    -3.125170642687     4.320067315586
H                    -1.928897447569    -1.341744502466     2.420125418381
H                    -1.678212872901     0.283416100770     3.041617768081
H                    -1.870077426772     0.025691336615     1.301554398209
H                     4.155406164000    -2.583805062661     6.266069506305
H                     4.144468303894    -0.846008148198     6.602240749028
H                     3.764352259392    -1.996550891249     7.902339640027
H                     1.697913129725    -0.940160468793     7.052324847745
H                     0.539201377529    -2.989915836948     6.706260367189
H                     1.779205158200    -3.319775043318     7.711383720469
