
  -OEChem-05262117483D

 19 20  0     0  0  0  0  0  0999 V2000
    1.6226   -1.2733    5.8013 C   0  0  0  0  0  0  0  0  0  0  0  0
    0.7160    0.3961    1.9660 C   0  0  0  0  0  0  0  0  0  0  0  0
    1.0138   -0.1342    3.2208 C   0  0  0  0  0  0  0  0  0  0  0  0
    0.3581   -1.8584    1.2006 C   0  0  0  0  0  0  0  0  0  0  0  0
    0.3823   -0.4852    0.9389 C   0  0  0  0  0  0  0  0  0  0  0  0
    0.9664   -1.5234    3.3993 C   0  0  0  0  0  0  0  0  0  0  0  0
    0.5166   -3.4449    5.1075 C   0  0  0  0  0  0  0  0  0  0  0  0
    1.9549   -3.5428    4.7246 C   0  0  0  0  0  0  0  0  0  0  0  0
    1.2742   -2.1652    4.7201 C   0  0  0  0  0  0  0  0  0  0  0  0
    1.9038   -0.5548    6.6737 N   0  0  0  0  0  0  0  0  0  0  0  0
    0.6437   -2.3625    2.4028 N   0  0  0  0  0  0  0  0  0  0  0  0
   -0.0034    0.1061   -0.6617 Cl  0  0  0  0  0  0  0  0  0  0  0  0
    0.7425    1.4672    1.7902 H   0  0  0  0  0  0  0  0  0  0  0  0
    1.2779    0.5213    4.0442 H   0  0  0  0  0  0  0  0  0  0  0  0
    0.1003   -2.5641    0.4136 H   0  0  0  0  0  0  0  0  0  0  0  0
   -0.2220   -3.7634    4.3801 H   0  0  0  0  0  0  0  0  0  0  0  0
    0.2429   -3.5479    6.1520 H   0  0  0  0  0  0  0  0  0  0  0  0
    2.6941   -3.7149    5.4997 H   0  0  0  0  0  0  0  0  0  0  0  0
    2.1895   -3.9279    3.7383 H   0  0  0  0  0  0  0  0  0  0  0  0
  1  9  1  0  0  0  0
  1 10  3  0  0  0  0
  2  3  1  0  0  0  0
  2  5  2  0  0  0  0
  2 13  1  0  0  0  0
  3  6  2  0  0  0  0
  3 14  1  0  0  0  0
  4  5  1  0  0  0  0
  4 11  2  0  0  0  0
  4 15  1  0  0  0  0
  5 12  1  0  0  0  0
  6  9  1  0  0  0  0
  6 11  1  0  0  0  0
  7  8  1  0  0  0  0
  7  9  1  0  0  0  0
  7 16  1  0  0  0  0
  7 17  1  0  0  0  0
  8  9  1  0  0  0  0
  8 18  1  0  0  0  0
  8 19  1  0  0  0  0
M  END
$$$$
