
  -OEChem-05262117483D

 28 29  0     0  0  0  0  0  0999 V2000
    1.3411   -2.8880   -1.3004 C   0  0  0  0  0  0  0  0  0  0  0  0
    1.1240   -3.1952   -2.6463 C   0  0  0  0  0  0  0  0  0  0  0  0
   -0.1464   -1.0031   -1.4942 C   0  0  0  0  0  0  0  0  0  0  0  0
    0.6996   -1.7922   -0.7052 C   0  0  0  0  0  0  0  0  0  0  0  0
   -0.3771   -1.2887   -2.8450 C   0  0  0  0  0  0  0  0  0  0  0  0
    0.2638   -2.4058   -3.3979 C   0  0  0  0  0  0  0  0  0  0  0  0
   -2.2714    1.9190   -7.2736 C   0  0  0  0  0  0  0  0  0  0  0  0
   -3.2859    0.8967   -6.7712 C   0  0  0  0  0  0  0  0  0  0  0  0
   -1.6943    1.1932   -5.1554 C   0  0  0  0  0  0  0  0  0  0  0  0
    0.8968   -1.4756    0.7601 C   0  0  0  0  0  0  0  0  0  0  0  0
   -0.8927   -0.0663   -4.8494 C   0  0  0  0  0  0  0  0  0  0  0  0
   -1.1746    1.7458   -6.3664 O   0  0  0  0  0  0  0  0  0  0  0  0
   -3.0769    0.9370   -5.3558 O   0  0  0  0  0  0  0  0  0  0  0  0
   -1.2556   -0.4902   -3.5266 O   0  0  0  0  0  0  0  0  0  0  0  0
    0.0353   -2.7385   -4.7000 F   0  0  0  0  0  0  0  0  0  0  0  0
    2.0119   -3.5095   -0.7130 H   0  0  0  0  0  0  0  0  0  0  0  0
    1.6030   -4.0466   -3.1208 H   0  0  0  0  0  0  0  0  0  0  0  0
   -0.6528   -0.1376   -1.0744 H   0  0  0  0  0  0  0  0  0  0  0  0
   -1.9118    1.7288   -8.2877 H   0  0  0  0  0  0  0  0  0  0  0  0
   -2.6633    2.9418   -7.2041 H   0  0  0  0  0  0  0  0  0  0  0  0
   -4.3264    1.1631   -6.9676 H   0  0  0  0  0  0  0  0  0  0  0  0
   -3.0811   -0.1056   -7.1713 H   0  0  0  0  0  0  0  0  0  0  0  0
   -1.6143    1.9100   -4.3293 H   0  0  0  0  0  0  0  0  0  0  0  0
    0.8923   -0.3964    0.9407 H   0  0  0  0  0  0  0  0  0  0  0  0
    0.0942   -1.9126    1.3662 H   0  0  0  0  0  0  0  0  0  0  0  0
    1.8448   -1.8766    1.1299 H   0  0  0  0  0  0  0  0  0  0  0  0
    0.1756    0.1731   -4.8943 H   0  0  0  0  0  0  0  0  0  0  0  0
   -1.1170   -0.8416   -5.5865 H   0  0  0  0  0  0  0  0  0  0  0  0
  1  2  1  0  0  0  0
  1  4  2  0  0  0  0
  1 16  1  0  0  0  0
  2  6  2  0  0  0  0
  2 17  1  0  0  0  0
  3  4  1  0  0  0  0
  3  5  2  0  0  0  0
  3 18  1  0  0  0  0
  4 10  1  0  0  0  0
  5  6  1  0  0  0  0
  5 14  1  0  0  0  0
  6 15  1  0  0  0  0
  7  8  1  0  0  0  0
  7 12  1  0  0  0  0
  7 19  1  0  0  0  0
  7 20  1  0  0  0  0
  8 13  1  0  0  0  0
  8 21  1  0  0  0  0
  8 22  1  0  0  0  0
  9 11  1  0  0  0  0
  9 12  1  0  0  0  0
  9 13  1  0  0  0  0
  9 23  1  0  0  0  0
 10 24  1  0  0  0  0
 10 25  1  0  0  0  0
 10 26  1  0  0  0  0
 11 14  1  0  0  0  0
 11 27  1  0  0  0  0
 11 28  1  0  0  0  0
M  END
$$$$
