24
0 1 C10H10O4
C                     0.810095854302     1.454091898811     1.409297164347
C                    -0.264901079186     0.790444070110     0.830099440796
C                     0.761661603028     1.893046395352     2.750704692057
C                    -1.454207825663     0.525016591894     1.556470882408
C                    -0.398501026077     1.631075481508     3.450265714255
C                    -1.486816741404     0.964411803090     2.878768048297
C                    -2.613504540931    -0.181947561273     0.956944535845
C                    -2.013807000249     1.468132954625     5.004812947542
C                    -3.006775687468    -1.522991882913    -2.416834354181
C                    -3.464021501218    -1.222816718714    -1.001085852873
O                    -3.654719483929    -0.431425876489     1.537967841396
O                    -0.684500802828     1.954890076521     4.757666599874
O                    -2.490098700869     0.845651011790     3.799933277771
O                    -2.381331077227    -0.525932978653    -0.335873988008
H                     1.705339385737     1.640667628093     0.823787362109
H                    -0.211657321456     0.460144911099    -0.200400049985
H                     1.593475466859     2.412325647927     3.216114254931
H                    -1.986522490972     0.723656778396     5.807531193093
H                    -2.668928270639     2.308348205189     5.258616270436
H                    -2.777071724469    -0.600205974146    -2.957981992574
H                    -2.113676826600    -2.155051901509    -2.413976146356
H                    -3.800267056296    -2.050268775885    -2.956336034486
H                    -3.692129291121    -2.133799239836    -0.440532307187
H                    -4.354112598198    -0.587433139144    -0.982467223683
