14   
torsion grid (-165,)
C        0.2631349767   -2.3917252924   -0.8577696515
C        0.1379054914   -2.0460091322    0.4697065665
C        0.4314076463   -0.7027031336    1.0893810443
N       -0.1021520459   -3.6814262957   -1.1461925148
N       -0.5064865840   -4.3717393747   -0.1484887234
N        2.8601409311   -0.7040842544    0.8953923043
N        1.6263329530   -0.1070385583    0.4918100816
S       -0.4533391683   -3.4114439353    1.3138192866
H        0.6269728793   -1.7430447437   -1.6449356434
H       -0.4114980840   -0.0303180229    0.8861088056
H        0.4972916696   -0.8023587966    2.1871869602
H        2.8057451493   -1.0456838287    1.8604637215
H        3.0230544062   -1.5113073485    0.2968312617
H        1.6769703436    0.8791904327    0.7325777325
14   
torsion grid (-150,)
C        0.3774995066   -2.4369652660   -0.7958275592
C        0.1009287840   -2.0489074569    0.4960902892
C        0.4326968437   -0.7259571594    1.1390814156
N       -0.0568596150   -3.6986136858   -1.1154378995
N       -0.6510909086   -4.3278174016   -0.1764715561
N        2.8469215446   -0.6502862258    0.8125332075
N        1.5737119151   -0.0950920652    0.4771072897
S       -0.7141508401   -3.3392079122    1.2711819547
H        0.8879979736   -1.8343872815   -1.5365434974
H       -0.4291332797   -0.0550141783    1.0347183085
H        0.5961129101   -0.8696809436    2.2219025675
H        2.8550130611   -0.9933454032    1.7785506401
H        3.0067137526   -1.4522767046    0.2063265807
H        1.6063347218    0.8928921590    0.7120729464
14   
torsion grid (-135,)
C        0.4719956813   -2.4938564623   -0.7491286229
C        0.0661039017   -2.0537447187    0.4903623374
C        0.4369836607   -0.7594214054    1.1696495171
N       -0.0120516882   -3.7292433518   -1.1010185614
N       -0.7600335682   -4.2921972082   -0.2340229751
N        2.8329048892   -0.5880708771    0.7448350907
N        1.5256176973   -0.0833048175    0.4641054638
S       -0.9276836344   -3.2662976009    1.1806853649
H        1.0967295748   -1.9410836314   -1.4391936818
H       -0.4330352526   -0.0919114827    1.1736654217
H        0.6978436887   -0.9629378488    2.2234363929
H        2.8932331497   -0.9358867066    1.7073128516
H        3.0047607077   -1.3792901600    0.1282025457
H        1.5306571736    0.9039342193    0.7029207948
14   
torsion grid (-120,)
C        0.5433900321   -2.5710249726   -0.6979197420
C        0.0348537278   -2.0585175426    0.4737071621
C        0.4511578681   -0.7982626264    1.1909532814
N        0.0021688751   -3.7742382740   -1.0774783407
N       -0.8813263983   -4.2499650303   -0.2898703747
N        2.8249894459   -0.5175489966    0.6890669989
N        1.4872142593   -0.0727086048    0.4537873338
S       -1.1239175251   -3.1703669909    1.0729670944
H        1.2734895219   -2.0887081556   -1.3349285307
H       -0.4164799859   -0.1392112627    1.3081380453
H        0.8049424726   -1.0659680484    2.2024242317
H        2.9323185965   -0.8714676470    1.6450993867
H        3.0206383047   -1.2913734679    0.0581923161
H        1.4572900501    0.9126497045    0.6973380546
14   
torsion grid (-105,)
C        0.9312834047   -3.0305245363    0.0569672497
C        0.1241750203   -1.9188071494    0.1590015325
C        0.5070522215   -0.5196790512    0.6055115737
N        0.2939585597   -4.1712019291   -0.3639560361
N       -0.9539686337   -4.0396426589   -0.6015352673
N        2.4516637345   -0.2040235539   -0.7290036431
N        1.9311851336   -0.2231288356    0.6034405593
S       -1.4566403792   -2.3892576121   -0.3062843934
H        1.9909398771   -3.0826231122    0.2802423763
H        0.0234586903    0.2156064546   -0.0423379393
H        0.1267260302   -0.3567604220    1.6214635437
H        3.2536483976    0.4211305222   -0.7376459378
H        2.7532214060   -1.1266851219   -1.0473395659
H        2.4340219559   -0.8709163978    1.2123094025
14   
torsion grid (-90,)
C        0.9035677853   -3.0462385170    0.1969137088
C        0.1477661954   -1.8941073163    0.1645628834
C        0.5301318940   -0.5126632410    0.6662927093
N        0.2892047279   -4.1563686738   -0.3249904744
N       -0.8958563134   -3.9627522682   -0.7650005736
N        2.3786929807   -0.1802740807   -0.7862992737
N        1.9480659765   -0.1914240086    0.5786290380
S       -1.3532156938   -2.2897157380   -0.5569906008
H        1.9085099801   -3.1474940415    0.5917859180
H       -0.0123018620    0.2488202834    0.1016602445
H        0.2279354157   -0.4208028609    1.7166074154
H        3.1849192742    0.4361243563   -0.8500989103
H        2.6488241458   -1.1089205953   -1.1167639435
H        2.4942390469   -0.8368113764    1.1521317405
14   
torsion grid (-75,)
C        0.8531394038   -3.0940964467    0.3527728971
C        0.1823752476   -1.9016774397    0.1787641370
C        0.5651778190   -0.5342225767    0.7182901171
N        0.2899528363   -4.1722101334   -0.2795210707
N       -0.7770885845   -3.9139732263   -0.9402642934
N        2.2961601110   -0.1445923810   -0.8556152864
N        1.9686785455   -0.1780241144    0.5383563715
S       -1.1673870622   -2.2206511957   -0.8220685469
H        1.7556835804   -3.2453639114    0.9352163502
H       -0.0329236809    0.2385345283    0.2313981133
H        0.3406960042   -0.4961670357    1.7906322532
H        3.0862306614    0.4851381836   -0.9711960560
H        2.5584406994   -1.0664588497   -1.2113849511
H        2.5629223594   -0.8303388988    1.0535074491
14   
torsion grid (-60,)
C        0.7634393315   -3.1462850727    0.5043146449
C        0.2261336149   -1.9143326069    0.1918099798
C        0.6162928026   -0.5645460978    0.7647670795
N        0.2829771853   -4.1924336618   -0.2382721834
N       -0.5935177140   -3.8701250417   -1.1186120632
N        2.2248428772   -0.0590882396   -0.9050233401
N        2.0018037900   -0.1764656240    0.5057653737
S       -0.8838539868   -2.1573086148   -1.0865464166
H        1.5007609260   -3.3465436207    1.2746173996
H       -0.0223382264    0.2176661128    0.3502733180
H        0.4570392706   -0.5722603320    1.8487665291
H        2.9859188874    0.6016315987   -1.0410788810
H        2.4916368285   -0.9516266700   -1.3261450039
H        2.6328950121   -0.8595135020    0.9291641399
14   
torsion grid (-45,)
C        0.6170122984   -3.2006912475    0.6451968799
C        0.2522855527   -1.9427107243    0.2110570705
C        0.6659757269   -0.6101280574    0.7993358348
N        0.2015954931   -4.2322427479   -0.1548700661
N       -0.4599724311   -3.8733398832   -1.1946962047
N        2.1436040945    0.0134955799   -0.9560565977
N        2.0288128678   -0.1997460346    0.4563813022
S       -0.6084435329   -2.1432041212   -1.2550844422
H        1.1721296436   -3.4269727569    1.5494388158
H       -0.0040571752    0.1806592688    0.4567754546
H        0.5793752519   -0.6560888656    1.8901832979
H        2.8665072293    0.7139242305   -1.1022712191
H        2.4145329466   -0.8375997128   -1.4526399159
H        2.6880903489   -0.9092472697    0.7814324151
14   
torsion grid (-30,)
C        0.4860350067   -3.2286946176    0.7355637366
C        0.3053412038   -1.9659775721    0.2115572858
C        0.7287529190   -0.6486885816    0.8201126444
N        0.1041641841   -4.2573633457   -0.0861010534
N       -0.3619981598   -3.8913013854   -1.2235504653
N        2.0958387020    0.0876452401   -0.9867430338
N        2.0639347668   -0.1992340450    0.4168104676
S       -0.3503573619   -2.1569445991   -1.3605765118
H        0.8788741859   -3.4582070184    1.7202482393
H        0.0270053101    0.1423869027    0.5484020759
H        0.7121417447   -0.7403341104    1.9111956391
H        2.7664783587    0.8388681506   -1.1312049409
H        2.3939175148   -0.7189068626   -1.5382116598
H        2.7512118290   -0.9117738951    0.6676573515
14   
torsion grid (-15,)
C        0.3563631846   -3.2523765625    0.7872582381
C        0.3625985008   -2.0055356535    0.2006400160
C        0.7842686620   -0.6979292514    0.8273192231
N       -0.0208177150   -4.2806004590   -0.0386857011
N       -0.3147176154   -3.9266578210   -1.2350431730
N        2.0480111948    0.1299675951   -1.0201488851
N        2.0837680852   -0.1897130305    0.3765482841
S       -0.1321629133   -2.2064186148   -1.4300973689
H        0.6104365572   -3.4701357311    1.8189061281
H        0.0439833629    0.0792293910    0.6246281480
H        0.8388221916   -0.8319601655    1.9126965179
H        2.6419264267    0.9435216966   -1.1645115715
H        2.4057306341   -0.6320417196   -1.5980151353
H        2.8075235604   -0.8798255406    0.5814997185
14   
torsion grid (0,)
C        0.2360728065   -3.2465693506    0.8176128272
C        0.4300886351   -2.0338385114    0.1945782593
C        0.8466161464   -0.7325242327    0.8374164429
N       -0.1497584048   -4.2709849598   -0.0104085189
N       -0.2814941556   -3.9418265164   -1.2417120864
N        2.0058817301    0.1705099727   -1.0478943500
N        2.1013168662   -0.1549795370    0.3454584509
S        0.0761995339   -2.2540022295   -1.4715743104
H        0.3622162126   -3.4436170683    1.8765551697
H        0.0645251861    0.0193681981    0.7052413056
H        0.9758991767   -0.9035533282    1.9112719623
H        2.5044373395    1.0457293220   -1.1942956969
H        2.4395220862   -0.5414389399   -1.6367679201
H        2.8674675483   -0.8053167067    0.5214829423
14   
torsion grid (15,)
C       -0.6998683101   -2.5400465313    0.0236980213
C        0.4898667736   -1.8751165644   -0.1575374209
C        0.8445159425   -0.4658547173    0.2235404138
N       -0.7161356462   -3.8275679859   -0.4541316694
N        0.3821015650   -4.2137317692   -0.9881677534
N        2.3870187850   -0.9342609896    2.0555919494
N        2.2084683086   -0.3837490471    0.7490612110
S        1.5757357163   -2.9478968116   -0.9386173880
H       -1.5899412299   -2.1413482755    0.4972826736
H        0.7989495037    0.1729705409   -0.6672335705
H        0.0822017899   -0.0925908933    0.9305311846
H        1.5387425621   -0.8261283521    2.6202376013
H        2.5596683799   -1.9322135313    1.9522181179
H        2.5051067010    0.5875178181    0.7897925630
14   
torsion grid (30,)
C       -0.7588209163   -2.5252899644   -0.0933227718
C        0.4687283083   -1.9057459869   -0.0983813144
C        0.8145490234   -0.4952381498    0.2902890279
N       -0.7524922320   -3.8138296989   -0.5682676318
N        0.3967371673   -4.2408261928   -0.9411620213
N        2.4852482626   -0.8959702822    2.0252582998
N        2.2102087619   -0.3863726707    0.7187188248
S        1.6126416939   -3.0155831330   -0.7304036026
H       -1.6930982786   -2.0944354140    0.2488489383
H        0.6840908598    0.1590467454   -0.5803565528
H        0.1060438215   -0.1580351438    1.0676015391
H        1.6764441351   -0.7805041588    2.6436445381
H        2.6666091938   -1.8940554093    1.9414457474
H        2.5003927428    0.5874353299    0.7106013363
14   
torsion grid (45,)
C       -0.7997197634   -2.5062268369   -0.2139369269
C        0.4402204842   -1.9353157797   -0.0429227225
C        0.7808193156   -0.5266008585    0.3638630914
N       -0.7771775816   -3.7985275503   -0.6760997442
N        0.3962020369   -4.2734566672   -0.8801435444
N        2.5757157264   -0.8489208454    1.9909305583
N        2.2017687452   -0.3874821807    0.6909191985
S        1.6147299066   -3.0913316016   -0.5137886368
H       -1.7559758768   -2.0361214348   -0.0130281948
H        0.5600960402    0.1493740634   -0.4704454143
H        0.1375510856   -0.2353915014    1.2130316976
H        1.8098133449   -0.7267994613    2.6604649014
H        2.7744982352   -1.8451056706    1.9294005205
H        2.4760773992    0.5889691025    0.6324057195
14   
torsion grid (60,)
C       -0.8149724498   -2.4649922744   -0.3598898967
C        0.4134984057   -1.9575476733   -0.0002326792
C        0.7461445397   -0.5557722285    0.4440485998
N       -0.7953865535   -3.7682748754   -0.7862983106
N        0.3643310270   -4.3148506655   -0.7897486836
N        2.6635255301   -0.8000870759    1.9430188378
N        2.1808177886   -0.3644212358    0.6699360891
S        1.5750345618   -3.1895303128   -0.2558613354
H       -1.7608092597   -1.9354114814   -0.3302574281
H        0.4287552197    0.1455931716   -0.3354088465
H        0.1668471191   -0.3278160002    1.3566404811
H        1.9384167582   -0.7192586490    2.6621975175
H        2.9210864663   -1.7817714930    1.8711868733
H        2.4103020954    0.6219537869    0.5908499888
14   
torsion grid (75,)
C       -0.7799416329   -2.4356158218   -0.5214770578
C        0.3954867692   -1.9952671708    0.0457936570
C        0.7002856404   -0.5972651935    0.5226879317
N       -0.7958970825   -3.7658545300   -0.8530050457
N        0.2817082660   -4.4027149267   -0.5880091538
N        2.7503586631   -0.7849295620    1.8399211098
N        2.1297027520   -0.3095170840    0.6433219310
S        1.4572861077   -3.3351012166    0.1327258573
H       -1.6568798663   -1.8311209404   -0.7249038533
H        0.2794611361    0.1082226346   -0.2019064482
H        0.1661125365   -0.4326800953    1.4769719762
H        2.0781315912   -0.8562726356    2.6091183127
H        3.1316304465   -1.7115286847    1.6643624796
H        2.2673587788    0.6971216158    0.6246848388
14   
torsion grid (90,)
C       -0.7015589943   -2.4074739184   -0.6653909173
C        0.3712874689   -2.0105169256    0.1002520299
C        0.6471973655   -0.6166238453    0.6010376079
N       -0.7496506985   -3.7511613691   -0.9386603996
N        0.2031453631   -4.4405196642   -0.4400524281
N        2.8066147039   -0.7966039468    1.7279796030
N        2.0676745627   -0.2646471905    0.6283335368
S        1.2896931821   -3.4108486797    0.4651891817
H       -1.4755642960   -1.7602257307   -1.0621704558
H        0.1487982392    0.0861377942   -0.0751887367
H        0.1643460318   -0.4992280137    1.5894382046
H        2.2105083714   -0.9634626285    2.5436180594
H        3.2249933511   -1.6798638846    1.4460009539
H        2.1535063707    0.7469216152    0.6815042787
14   
torsion grid (105,)
C       -0.6154187341   -2.3857119660   -0.7598326290
C        0.3334551190   -2.0171692176    0.1658672523
C        0.6033965423   -0.6278577800    0.6786689260
N       -0.6771018894   -3.7318078186   -1.0195346056
N        0.1490269231   -4.4495146502   -0.3614973412
N        2.8471444129   -0.7985547904    1.6298736671
N        2.0182050503   -0.2494732087    0.6069840198
S        1.1194478245   -3.4462191543    0.6954896333
H       -1.2871893642   -1.7154493005   -1.2838776621
H        0.0436286607    0.0752302877    0.0530031514
H        0.1953380466   -0.5391274726    1.7024057437
H        2.3250053914   -0.9751086124    2.4931902864
H        3.2349952290   -1.6790128195    1.2994776211
H        2.0915121174    0.7619274987    0.6815455174
14   
torsion grid (120,)
C       -0.5184118359   -2.3670053399   -0.8271457906
C        0.2877784684   -2.0195221459    0.2321380300
C        0.5611594324   -0.6341594392    0.7524785528
N       -0.5874091462   -3.7131021662   -1.0819664037
N        0.1022647395   -4.4506686216   -0.2997184896
N        2.8735021635   -0.7981708617    1.5270324896
N        1.9650280376   -0.2394866240    0.5809038491
S        0.9374755877   -3.4662814742    0.8836568419
H       -1.0786745511   -1.6806697845   -1.4517323135
H       -0.0508697259    0.0702889473    0.1799616597
H        0.2346346775   -0.5675219470    1.8059170819
H        2.4248351802   -0.9731372685    2.4313985387
H        3.2184684215   -1.6830631525    1.1626662988
H        2.0359610941    0.7713885363    0.6643767968
14   
torsion grid (135,)
C       -0.4046624480   -2.3547811876   -0.8808151602
C        0.2344510054   -2.0178561478    0.2906040789
C        0.5134247375   -0.6360563966    0.8175940096
N       -0.4875530256   -3.7009797271   -1.1246936375
N        0.0405598298   -4.4490716971   -0.2318684460
N        2.8793912815   -0.8073645696    1.4092441990
N        1.8995299380   -0.2221931286    0.5543241456
S        0.7178136089   -3.4749453963    1.0519533774
H       -0.8290662911   -1.6590396554   -1.5955699079
H       -0.1436609709    0.0697245586    0.2991975305
H        0.2633873466   -0.5901044945    1.8920808322
H        2.5037947543   -0.9979295436    2.3438308654
H        3.1744009458   -1.6911835302    1.0007885929
H        1.9704677571    0.7856294042    0.6702469331
14   
torsion grid (150,)
C       -0.2443738613   -2.3530209802   -0.9125914633
C        0.2004328643   -2.0194083728    0.3469405546
C        0.4699594285   -0.6410177452    0.8904713849
N       -0.3542158258   -3.6983818532   -1.1452692593
N       -0.0258127140   -4.4494693473   -0.1614660378
N        2.8774331300   -0.8092741585    1.2757496801
N        1.8239108216   -0.1853557747    0.5433439672
S        0.4711861724   -3.4789465052    1.2008290722
H       -0.4977380147   -1.6544002371   -1.7016588524
H       -0.2369900770    0.0596228567    0.4336657355
H        0.2881465534   -0.6271686167    1.9790879375
H        2.5820720126   -1.0554172656    2.2262723965
H        3.1282415692   -1.6704718199    0.7952623768
H        1.8925160698    0.8141231998    0.7188986286
14   
torsion grid (165,)
C       -0.0577461139   -2.3485535868   -0.9233936953
C        0.1807839165   -2.0210778845    0.3929132217
C        0.4444680151   -0.6505917939    0.9626290897
N       -0.2352599797   -3.6862568899   -1.1574384037
N       -0.1522442518   -4.4359003705   -0.1214174461
N        2.8740224241   -0.8071798233    1.1306296670
N        1.7557137171   -0.1489256651    0.5347745614
S        0.1714080181   -3.4744637604    1.2962391148
H       -0.0993857827   -1.6513113450   -1.7519343176
H       -0.3116113875    0.0431176131    0.5778443687
H        0.3304540386   -0.6747821935    2.0602409299
H        2.6602880980   -1.1185176156    2.0838997286
H        3.0779846675   -1.6356753015    0.5755470305
H        1.8311364982    0.8379090169    0.7693099812
14   
torsion grid (180,)
C        0.1151579835   -2.3655175106   -0.8953733386
C        0.1619968978   -2.0336664495    0.4407925036
C        0.4293347904   -0.6724844478    1.0325364315
N       -0.1558993952   -3.6849236173   -1.1460022703
N       -0.3271876605   -4.4135741987   -0.1064973740
N        2.8648565615   -0.7596322190    0.9990812608
N        1.6829808972   -0.1199574462    0.5136840767
S       -0.1493163883   -3.4548173632    1.3403626673
H        0.2891680930   -1.6861455991   -1.7210511704
H       -0.3778708303    0.0066384329    0.7325932585
H        0.4005223296   -0.7308670349    2.1346411925
H        2.7366316634   -1.0957695944    1.9591669291
H        3.0378259752   -1.5731314077    0.4119339197
H        1.7512278131    0.8635332697    0.7630396440
