
  -OEChem-05262117483D

 56 57  0     0  0  0  0  0  0999 V2000
   -2.8687   -1.0735   -1.3754 C   0  0  0  0  0  0  0  0  0  0  0  0
   -1.9259    0.0020   -1.1680 C   0  0  0  0  0  0  0  0  0  0  0  0
   -0.7878   -0.4322   -0.5430 C   0  0  0  0  0  0  0  0  0  0  0  0
   -4.1734   -1.0031   -2.0105 C   0  0  0  0  0  0  0  0  0  0  0  0
   -2.4238   -2.2848   -0.8864 C   0  0  0  0  0  0  0  0  0  0  0  0
   -4.3824   -3.4667   -1.6283 C   0  0  0  0  0  0  0  0  0  0  0  0
   -2.1648    1.4232   -1.5951 C   0  0  0  0  0  0  0  0  0  0  0  0
   -7.2095   -2.6368   -5.1546 C   0  0  0  0  0  0  0  0  0  0  0  0
   -5.0432   -3.8398   -4.7481 C   0  0  0  0  0  0  0  0  0  0  0  0
   -5.5892   -0.2517   -5.2953 C   0  0  0  0  0  0  0  0  0  0  0  0
    0.4212    0.3561   -0.1237 C   0  0  0  0  0  0  0  0  0  0  0  0
   -1.8930   -5.5186   -1.4669 C   0  0  0  0  0  0  0  0  0  0  0  0
   -2.6616   -4.7142   -0.4135 C   0  0  0  0  0  0  0  0  0  0  0  0
   -6.0489   -2.2960   -2.9736 C   0  0  0  0  0  0  0  0  0  0  0  0
    0.9144    2.9352    2.6068 C   0  0  0  0  0  0  0  0  0  0  0  0
    1.2936    1.9601    1.4942 C   0  0  0  0  0  0  0  0  0  0  0  0
   -1.3547   -6.8205   -0.9053 C   0  0  0  0  0  0  0  0  0  0  0  0
   -5.8276   -2.5511   -4.4879 C   0  0  0  0  0  0  0  0  0  0  0  0
   -4.8057   -2.2625   -2.1893 N   0  0  0  0  0  0  0  0  0  0  0  0
   -3.1623   -3.4445   -0.9520 N   0  0  0  0  0  0  0  0  0  0  0  0
    2.1170    3.6121    3.1150 N   0  0  0  0  0  0  0  0  0  0  0  0
    0.1071    1.2827    0.9700 N   0  0  0  0  0  0  0  0  0  0  0  0
   -4.7239    0.0335   -2.3720 O   0  0  0  0  0  0  0  0  0  0  0  0
   -5.0326   -4.5069   -1.7133 O   0  0  0  0  0  0  0  0  0  0  0  0
   -5.0002   -1.5280   -5.0661 O   0  0  0  0  0  0  0  0  0  0  0  0
   -0.4478   -6.5538    0.1407 F   0  0  0  0  0  0  0  0  0  0  0  0
   -0.8467   -2.1595   -0.1736 S   0  0  0  0  0  0  0  0  0  0  0  0
   -3.0724    1.8147   -1.1281 H   0  0  0  0  0  0  0  0  0  0  0  0
   -1.3260    2.0599   -1.3103 H   0  0  0  0  0  0  0  0  0  0  0  0
   -2.3233    1.4791   -2.6762 H   0  0  0  0  0  0  0  0  0  0  0  0
   -7.8338   -1.7662   -4.9313 H   0  0  0  0  0  0  0  0  0  0  0  0
   -7.0975   -2.7124   -6.2404 H   0  0  0  0  0  0  0  0  0  0  0  0
   -7.7400   -3.5273   -4.8042 H   0  0  0  0  0  0  0  0  0  0  0  0
   -4.0232   -3.7455   -4.3657 H   0  0  0  0  0  0  0  0  0  0  0  0
   -4.9795   -4.0085   -5.8269 H   0  0  0  0  0  0  0  0  0  0  0  0
   -5.5162   -4.6991   -4.2695 H   0  0  0  0  0  0  0  0  0  0  0  0
   -4.7702    0.4040   -5.5992 H   0  0  0  0  0  0  0  0  0  0  0  0
   -6.0395    0.1681   -4.3905 H   0  0  0  0  0  0  0  0  0  0  0  0
   -6.3312   -0.2882   -6.1038 H   0  0  0  0  0  0  0  0  0  0  0  0
    1.2423   -0.3379    0.1331 H   0  0  0  0  0  0  0  0  0  0  0  0
    0.7830    0.9494   -0.9723 H   0  0  0  0  0  0  0  0  0  0  0  0
   -1.0638   -4.9237   -1.8645 H   0  0  0  0  0  0  0  0  0  0  0  0
   -2.5665   -5.7532   -2.2986 H   0  0  0  0  0  0  0  0  0  0  0  0
   -2.0257   -4.4912    0.4460 H   0  0  0  0  0  0  0  0  0  0  0  0
   -3.5243   -5.2802   -0.0604 H   0  0  0  0  0  0  0  0  0  0  0  0
   -6.5421   -1.3357   -2.8261 H   0  0  0  0  0  0  0  0  0  0  0  0
   -6.6784   -3.0850   -2.5630 H   0  0  0  0  0  0  0  0  0  0  0  0
    0.3478    2.3933    3.3857 H   0  0  0  0  0  0  0  0  0  0  0  0
    0.2400    3.6904    2.1915 H   0  0  0  0  0  0  0  0  0  0  0  0
    1.7638    2.5229    0.6805 H   0  0  0  0  0  0  0  0  0  0  0  0
    2.0563    1.2492    1.8684 H   0  0  0  0  0  0  0  0  0  0  0  0
   -0.8125   -7.3902   -1.6655 H   0  0  0  0  0  0  0  0  0  0  0  0
   -2.1521   -7.4434   -0.4859 H   0  0  0  0  0  0  0  0  0  0  0  0
    2.6979    2.9482    3.6251 H   0  0  0  0  0  0  0  0  0  0  0  0
    1.8511    4.3331    3.7830 H   0  0  0  0  0  0  0  0  0  0  0  0
   -0.3506    0.7611    1.7163 H   0  0  0  0  0  0  0  0  0  0  0  0
  1  2  1  0  0  0  0
  1  4  1  0  0  0  0
  1  5  2  0  0  0  0
  2  3  2  0  0  0  0
  2  7  1  0  0  0  0
  3 11  1  0  0  0  0
  3 27  1  0  0  0  0
  4 19  1  0  0  0  0
  4 23  2  0  0  0  0
  5 20  1  0  0  0  0
  5 27  1  0  0  0  0
  6 19  1  0  0  0  0
  6 20  1  0  0  0  0
  6 24  2  0  0  0  0
  7 28  1  0  0  0  0
  7 29  1  0  0  0  0
  7 30  1  0  0  0  0
  8 18  1  0  0  0  0
  8 31  1  0  0  0  0
  8 32  1  0  0  0  0
  8 33  1  0  0  0  0
  9 18  1  0  0  0  0
  9 34  1  0  0  0  0
  9 35  1  0  0  0  0
  9 36  1  0  0  0  0
 10 25  1  0  0  0  0
 10 37  1  0  0  0  0
 10 38  1  0  0  0  0
 10 39  1  0  0  0  0
 11 22  1  0  0  0  0
 11 40  1  0  0  0  0
 11 41  1  0  0  0  0
 12 13  1  0  0  0  0
 12 17  1  0  0  0  0
 12 42  1  0  0  0  0
 12 43  1  0  0  0  0
 13 20  1  0  0  0  0
 13 44  1  0  0  0  0
 13 45  1  0  0  0  0
 14 18  1  0  0  0  0
 14 19  1  0  0  0  0
 14 46  1  0  0  0  0
 14 47  1  0  0  0  0
 15 16  1  0  0  0  0
 15 21  1  0  0  0  0
 15 48  1  0  0  0  0
 15 49  1  0  0  0  0
 16 22  1  0  0  0  0
 16 50  1  0  0  0  0
 16 51  1  0  0  0  0
 17 26  1  0  0  0  0
 17 52  1  0  0  0  0
 17 53  1  0  0  0  0
 18 25  1  0  0  0  0
 21 54  1  0  0  0  0
 21 55  1  0  0  0  0
 22 56  1  0  0  0  0
M  END
$$$$
