29
0 1 C11H14N2O2
C                     0.564034150579     4.447761380218    -0.994048774949
C                     0.035583775392     3.201707617041    -0.643647644817
C                     1.927537927813     4.716277851025    -0.912297145483
C                     2.289174733694     2.449966324553    -0.114387004068
C                     0.905220940196     2.194456071774    -0.198775724662
C                     2.792631047910     3.705854655686    -0.470579322591
C                    -0.778448585847     0.356589270224    -0.182188178150
C                     0.313733859110    -1.131368832339     1.358366202075
C                     1.291224441007    -0.048399489623     0.880963515068
C                    -0.805158191710    -1.093442564064     0.316011929959
C                     5.045382022059     3.042745291256     0.008740155400
N                     0.426781325153     0.920131640546     0.191476248926
N                    -0.478898983196    -1.941690581809    -0.843615446981
O                    -1.674187659989     0.875355972337    -0.838200291916
O                     4.122618635075     4.036267402586    -0.420409555278
H                    -0.111642172460     5.226854609742    -1.337321284791
H                    -1.023968142225     3.007124177120    -0.723692122142
H                     2.339732890621     5.683632323916    -1.182236298638
H                     2.962724314691     1.669302803990     0.209600949399
H                     0.791617409447    -2.111427262526     1.432123810716
H                    -0.085299016523    -0.864193095496     2.341887350966
H                     1.815013579901     0.435369056350     1.709619265182
H                     2.032133290780    -0.458448019705     0.184941058544
H                    -1.793754806231    -1.297763441465     0.749054617455
H                     6.029432882630     3.512211955260    -0.029582090890
H                     5.035065601210     2.170192328270    -0.656828919958
H                     4.839154212246     2.719856190142     1.037361395173
H                    -1.132561782984    -1.733314042640    -1.598192684809
H                    -0.616225374837    -2.920768975802    -0.596806624413
