57
1 1 C18FH30N4O3S
C                    -2.766582188587    -1.136660625613    -1.123499998967
C                    -1.850005221869    -0.081627293988    -0.808624170145
C                    -0.805302514210    -0.532384077484    -0.028059669222
C                    -3.994149585126    -1.033551070543    -1.906903350414
C                    -2.412375020161    -2.356626597900    -0.571401064659
C                    -4.314733029383    -3.473007676395    -1.523894235892
C                    -2.029746839146     1.336497853300    -1.274009353825
C                    -8.527184179187    -1.830806746751    -2.409209926596
C                    -7.001529730555    -0.602261012677    -0.838332215795
C                    -7.801572011621    -4.180129556121    -0.931077057303
C                     0.346992736760     0.241916817385     0.480337927159
C                    -1.826799859246    -5.564695612944    -1.164159869710
C                    -2.714351863425    -4.789942033429    -0.185106283544
C                    -6.065419917515    -2.168313865591    -2.628175344084
C                     3.746816443195     1.138517042769    -1.289071330064
C                     2.696187654582     1.108769663378    -0.173476645945
C                    -1.324260857850    -6.865090917266    -0.556642820263
C                    -7.213587570367    -1.902763475384    -1.618026400127
N                    -4.740935297081    -2.223292123340    -1.978715211493
N                    -3.145927370063    -3.489823732210    -0.726909678336
N                     4.869459487295     1.938362840336    -0.813937019380
N                     1.470526846490     0.326476361674    -0.581352728948
O                    -4.364230815723    -0.002444825172    -2.460035355056
O                    -4.882296754915    -4.517203157115    -1.789798592736
O                    -7.218220072337    -2.919374001174    -0.603339306495
F                    -2.412083972695    -7.656853633483    -0.165707943485
S                    -0.932056945328    -2.260311545921     0.341888610892
H                    -3.000369420530     1.721590603089    -0.952534928607
H                    -1.250700029046     2.002173203317    -0.888957297763
H                    -2.036894070598     1.387702902909    -2.366224417264
H                    -8.687771962735    -2.713416061154    -3.034916574808
H                    -9.373088402272    -1.735347204985    -1.722716766278
H                    -8.522244151172    -0.953376378582    -3.062664029476
H                    -6.125009541896    -0.682178418678    -0.189154330453
H                    -7.869364062688    -0.424136772627    -0.198057086134
H                    -6.864801991800     0.248886594551    -1.508447912953
H                    -7.573760502746    -4.841507881352    -0.092929397352
H                    -7.370030398784    -4.617185946925    -1.837516184605
H                    -8.890057116573    -4.103718557694    -1.036117542972
H                     0.091324424040     1.277702010610     0.708220319320
H                     0.812944870320    -0.200091761926     1.363154890699
H                    -0.954659278769    -4.963981554590    -1.452126338855
H                    -2.400747917321    -5.778306656661    -2.070186429291
H                    -2.198131985392    -4.598973932212     0.761648685812
H                    -3.613145639475    -5.362533154134     0.036608421225
H                    -6.219572244710    -3.118923494044    -3.136861040413
H                    -6.027735985944    -1.369673126244    -3.368245262767
H                     4.007148876224     0.108128546908    -1.586317863534
H                     3.318739305930     1.628379207201    -2.170765855823
H                     2.373593612097     2.121290443095     0.073605777116
H                     3.085629669531     0.636288345598     0.731396598364
H                    -0.715746483990    -6.687940887169     0.337921184132
H                    -0.739838890496    -7.439536137330    -1.281070435227
H                     5.394731719407     2.332591734123    -1.590023987879
H                     5.517326918192     1.382812358255    -0.260105400131
H                     1.729685204626    -0.631706464719    -0.843809935481
H                     1.057690579113     0.735807412126    -1.427682870896
