24
0 1 C10F4H8O2
C                     1.714628229112    -1.031002039795    -0.147920318312
C                     0.658957016694    -0.473912620424     0.577941409227
C                     2.798760851506    -1.630835716606     1.928989794284
C                     2.786770563763    -1.614064746690     0.529296508380
C                     0.667480817991    -0.493826363211     1.973637502152
C                     1.746406580054    -1.079075048246     2.668452492701
C                     0.847960330554    -2.246718105234     4.773116558260
C                     1.764351296774    -1.166313208199     4.179533422118
C                     3.957329249596    -2.176568072267    -0.239879765588
C                    -0.477283177625     0.121666588032     2.746165843869
O                     0.336229177043    -2.147723564449     5.862792105558
O                     0.654220838324    -3.358226488223     4.014279073462
F                     3.546970240662    -2.673063017942    -1.453237499870
F                     4.544497006369    -3.207499472195     0.456744360134
F                    -1.508808176798     0.461964365227     1.911070552155
F                    -0.056762008290     1.284462873906     3.363716781161
H                     1.694847278054    -1.022865924305    -1.233056959212
H                    -0.182119617951    -0.030025610185     0.056774798504
H                     3.635997749851    -2.088006291940     2.449349716684
H                     1.484680881638    -0.224522714844     4.652390677972
H                     2.776923184426    -1.403536853446     4.523024868447
H                     4.739810409209    -1.437661893647    -0.440738670424
H                    -0.888162346591    -0.525898111166     3.525614781023
H                     1.108592822937    -3.261981097132     3.157014553394
