
  -OEChem-05262117483D

 30 31  0     1  0  0  0  0  0999 V2000
    1.2814   -1.6436    4.2022 C   0  0  0  0  0  0  0  0  0  0  0  0
    1.1588   -1.4065    2.8272 C   0  0  0  0  0  0  0  0  0  0  0  0
    0.4219   -1.0448    5.1123 C   0  0  0  0  0  0  0  0  0  0  0  0
   -0.7340    0.0695    3.2802 C   0  0  0  0  0  0  0  0  0  0  0  0
    0.1507   -0.5476    2.3789 C   0  0  0  0  0  0  0  0  0  0  0  0
   -0.5930   -0.1868    4.6501 C   0  0  0  0  0  0  0  0  0  0  0  0
   -1.0154    0.2641    0.3369 C   0  0  0  0  0  0  0  0  0  0  0  0
    0.7581    0.0381   -1.2787 C   0  0  0  0  0  0  0  0  0  0  0  0
    1.0861   -0.7219    0.0261 C   0  0  0  0  0  0  0  0  0  0  0  0
   -0.7532    0.1603   -1.1736 C   0  0  2  0  0  0  0  0  0  0  0  0
   -2.4571    1.2142    5.2029 C   0  0  0  0  0  0  0  0  0  0  0  0
    0.0312   -0.3009    0.9730 N   0  0  0  0  0  0  0  0  0  0  0  0
   -1.4213    1.3776   -1.7642 N   0  3  0  0  0  0  0  0  0  0  0  0
   -2.0343    0.8249    0.7509 O   0  0  0  0  0  0  0  0  0  0  0  0
   -1.3903    0.3523    5.6061 O   0  0  0  0  0  0  0  0  0  0  0  0
    2.0599   -2.3115    4.5586 H   0  0  0  0  0  0  0  0  0  0  0  0
    1.8328   -1.9051    2.1408 H   0  0  0  0  0  0  0  0  0  0  0  0
    0.5085   -1.2240    6.1792 H   0  0  0  0  0  0  0  0  0  0  0  0
   -1.5099    0.7227    2.9119 H   0  0  0  0  0  0  0  0  0  0  0  0
    1.2275    1.0278   -1.2504 H   0  0  0  0  0  0  0  0  0  0  0  0
    1.1070   -0.4894   -2.1676 H   0  0  0  0  0  0  0  0  0  0  0  0
    1.0573   -1.8062   -0.1198 H   0  0  0  0  0  0  0  0  0  0  0  0
    2.0662   -0.4483    0.4178 H   0  0  0  0  0  0  0  0  0  0  0  0
   -1.2835   -0.7081   -1.5746 H   0  0  0  0  0  0  0  0  0  0  0  0
   -2.9632    1.5058    6.1227 H   0  0  0  0  0  0  0  0  0  0  0  0
   -3.1618    0.6902    4.5471 H   0  0  0  0  0  0  0  0  0  0  0  0
   -2.0728    2.1086    4.6985 H   0  0  0  0  0  0  0  0  0  0  0  0
   -0.8036    2.1984   -1.7584 H   0  0  0  0  0  0  0  0  0  0  0  0
   -2.2170    1.5785   -1.1141 H   0  0  0  0  0  0  0  0  0  0  0  0
   -1.7681    1.2418   -2.7196 H   0  0  0  0  0  0  0  0  0  0  0  0
  1  2  1  0  0  0  0
  1  3  2  0  0  0  0
  1 16  1  0  0  0  0
  2  5  2  0  0  0  0
  2 17  1  0  0  0  0
  3  6  1  0  0  0  0
  3 18  1  0  0  0  0
  4  5  1  0  0  0  0
  4  6  2  0  0  0  0
  4 19  1  0  0  0  0
  5 12  1  0  0  0  0
  6 15  1  0  0  0  0
  7 10  1  0  0  0  0
  7 12  1  0  0  0  0
  7 14  2  0  0  0  0
  8  9  1  0  0  0  0
  8 10  1  0  0  0  0
  8 20  1  0  0  0  0
  8 21  1  0  0  0  0
  9 12  1  0  0  0  0
  9 22  1  0  0  0  0
  9 23  1  0  0  0  0
 10 13  1  0  0  0  0
 10 24  1  0  0  0  0
 11 15  1  0  0  0  0
 11 25  1  0  0  0  0
 11 26  1  0  0  0  0
 11 27  1  0  0  0  0
 13 28  1  0  0  0  0
 13 29  1  0  0  0  0
 13 30  1  0  0  0  0
M  CHG  1  13   1
M  END
$$$$
