
  -OEChem-05262117483D

 56 57  0     0  0  0  0  0  0999 V2000
   -2.6434   -1.2040   -0.9861 C   0  0  0  0  0  0  0  0  0  0  0  0
   -1.7693   -0.0907   -0.6921 C   0  0  0  0  0  0  0  0  0  0  0  0
   -0.7160   -0.4634    0.0988 C   0  0  0  0  0  0  0  0  0  0  0  0
   -3.8667   -1.1919   -1.7695 C   0  0  0  0  0  0  0  0  0  0  0  0
   -2.2248   -2.3882   -0.4134 C   0  0  0  0  0  0  0  0  0  0  0  0
   -4.0424   -3.6523   -1.3496 C   0  0  0  0  0  0  0  0  0  0  0  0
   -1.9916    1.3087   -1.1941 C   0  0  0  0  0  0  0  0  0  0  0  0
   -8.3204   -2.2312   -2.4396 C   0  0  0  0  0  0  0  0  0  0  0  0
   -6.9329   -0.9541   -0.7810 C   0  0  0  0  0  0  0  0  0  0  0  0
   -7.5461   -4.5705   -0.9417 C   0  0  0  0  0  0  0  0  0  0  0  0
    0.4311    0.3664    0.6032 C   0  0  0  0  0  0  0  0  0  0  0  0
   -1.3541   -5.4831   -1.0210 C   0  0  0  0  0  0  0  0  0  0  0  0
   -2.3387   -4.8373   -0.0395 C   0  0  0  0  0  0  0  0  0  0  0  0
   -5.8390   -2.4770   -2.5161 C   0  0  0  0  0  0  0  0  0  0  0  0
    3.4058    1.8872   -1.1861 C   0  0  0  0  0  0  0  0  0  0  0  0
    2.5247    1.4581   -0.0137 C   0  0  0  0  0  0  0  0  0  0  0  0
   -0.6489   -6.6847   -0.4195 C   0  0  0  0  0  0  0  0  0  0  0  0
   -7.0512   -2.2578   -1.5740 C   0  0  0  0  0  0  0  0  0  0  0  0
   -4.5427   -2.4374   -1.8233 N   0  0  0  0  0  0  0  0  0  0  0  0
   -2.8931   -3.5808   -0.5574 N   0  0  0  0  0  0  0  0  0  0  0  0
    4.6150    2.5619   -0.6875 N   0  0  0  0  0  0  0  0  0  0  0  0
    1.3203    0.7751   -0.4909 N   0  0  0  0  0  0  0  0  0  0  0  0
   -4.3219   -0.2067   -2.3476 O   0  0  0  0  0  0  0  0  0  0  0  0
   -4.5559   -4.7351   -1.6097 O   0  0  0  0  0  0  0  0  0  0  0  0
   -7.0983   -3.2744   -0.5580 O   0  0  0  0  0  0  0  0  0  0  0  0
   -1.5872   -7.6618   -0.0420 F   0  0  0  0  0  0  0  0  0  0  0  0
   -0.7600   -2.1854    0.4969 S   0  0  0  0  0  0  0  0  0  0  0  0
   -2.9445    1.7029   -0.8286 H   0  0  0  0  0  0  0  0  0  0  0  0
   -1.1760    1.9643   -0.8859 H   0  0  0  0  0  0  0  0  0  0  0  0
   -2.0517    1.3183   -2.2855 H   0  0  0  0  0  0  0  0  0  0  0  0
   -8.4051   -3.1127   -3.0826 H   0  0  0  0  0  0  0  0  0  0  0  0
   -9.2079   -2.1821   -1.8016 H   0  0  0  0  0  0  0  0  0  0  0  0
   -8.3150   -1.3466   -3.0835 H   0  0  0  0  0  0  0  0  0  0  0  0
   -6.0868   -1.0039   -0.0909 H   0  0  0  0  0  0  0  0  0  0  0  0
   -7.8404   -0.8124   -0.1869 H   0  0  0  0  0  0  0  0  0  0  0  0
   -6.7901   -0.0972   -1.4417 H   0  0  0  0  0  0  0  0  0  0  0  0
   -7.3684   -5.2159   -0.0785 H   0  0  0  0  0  0  0  0  0  0  0  0
   -6.9804   -4.9748   -1.7870 H   0  0  0  0  0  0  0  0  0  0  0  0
   -8.6196   -4.5756   -1.1719 H   0  0  0  0  0  0  0  0  0  0  0  0
    0.0435    1.2761    1.0781 H   0  0  0  0  0  0  0  0  0  0  0  0
    0.9645   -0.1863    1.3977 H   0  0  0  0  0  0  0  0  0  0  0  0
   -0.5857   -4.7577   -1.3152 H   0  0  0  0  0  0  0  0  0  0  0  0
   -1.8948   -5.7815   -1.9241 H   0  0  0  0  0  0  0  0  0  0  0  0
   -1.8547   -4.6167    0.9175 H   0  0  0  0  0  0  0  0  0  0  0  0
   -3.1731   -5.5093    0.1525 H   0  0  0  0  0  0  0  0  0  0  0  0
   -5.9185   -3.4436   -3.0122 H   0  0  0  0  0  0  0  0  0  0  0  0
   -5.8226   -1.6903   -3.2701 H   0  0  0  0  0  0  0  0  0  0  0  0
    2.7998    2.4918   -1.8788 H   0  0  0  0  0  0  0  0  0  0  0  0
    3.7266    0.9939   -1.7370 H   0  0  0  0  0  0  0  0  0  0  0  0
    3.1259    0.8481    0.6821 H   0  0  0  0  0  0  0  0  0  0  0  0
    2.2047    2.3491    0.5439 H   0  0  0  0  0  0  0  0  0  0  0  0
   -0.0879   -6.4150    0.4827 H   0  0  0  0  0  0  0  0  0  0  0  0
    0.0310   -7.1487   -1.1404 H   0  0  0  0  0  0  0  0  0  0  0  0
    4.3606    3.4636   -0.2860 H   0  0  0  0  0  0  0  0  0  0  0  0
    5.2407    2.7646   -1.4650 H   0  0  0  0  0  0  0  0  0  0  0  0
    1.5864   -0.0557   -1.0180 H   0  0  0  0  0  0  0  0  0  0  0  0
  1  2  1  0  0  0  0
  1  4  1  0  0  0  0
  1  5  2  0  0  0  0
  2  3  2  0  0  0  0
  2  7  1  0  0  0  0
  3 11  1  0  0  0  0
  3 27  1  0  0  0  0
  4 19  1  0  0  0  0
  4 23  2  0  0  0  0
  5 20  1  0  0  0  0
  5 27  1  0  0  0  0
  6 19  1  0  0  0  0
  6 20  1  0  0  0  0
  6 24  2  0  0  0  0
  7 28  1  0  0  0  0
  7 29  1  0  0  0  0
  7 30  1  0  0  0  0
  8 18  1  0  0  0  0
  8 31  1  0  0  0  0
  8 32  1  0  0  0  0
  8 33  1  0  0  0  0
  9 18  1  0  0  0  0
  9 34  1  0  0  0  0
  9 35  1  0  0  0  0
  9 36  1  0  0  0  0
 10 25  1  0  0  0  0
 10 37  1  0  0  0  0
 10 38  1  0  0  0  0
 10 39  1  0  0  0  0
 11 22  1  0  0  0  0
 11 40  1  0  0  0  0
 11 41  1  0  0  0  0
 12 13  1  0  0  0  0
 12 17  1  0  0  0  0
 12 42  1  0  0  0  0
 12 43  1  0  0  0  0
 13 20  1  0  0  0  0
 13 44  1  0  0  0  0
 13 45  1  0  0  0  0
 14 18  1  0  0  0  0
 14 19  1  0  0  0  0
 14 46  1  0  0  0  0
 14 47  1  0  0  0  0
 15 16  1  0  0  0  0
 15 21  1  0  0  0  0
 15 48  1  0  0  0  0
 15 49  1  0  0  0  0
 16 22  1  0  0  0  0
 16 50  1  0  0  0  0
 16 51  1  0  0  0  0
 17 26  1  0  0  0  0
 17 52  1  0  0  0  0
 17 53  1  0  0  0  0
 18 25  1  0  0  0  0
 21 54  1  0  0  0  0
 21 55  1  0  0  0  0
 22 56  1  0  0  0  0
M  END
$$$$
