
  -OEChem-05262117483D

 56 57  0     0  0  0  0  0  0999 V2000
   -2.6808   -0.7916   -1.3669 C   0  0  0  0  0  0  0  0  0  0  0  0
   -1.6164    0.1593   -1.1371 C   0  0  0  0  0  0  0  0  0  0  0  0
   -0.6185   -0.3687   -0.3632 C   0  0  0  0  0  0  0  0  0  0  0  0
   -3.8992   -0.5937   -2.1327 C   0  0  0  0  0  0  0  0  0  0  0  0
   -2.4650   -2.0077   -0.7508 C   0  0  0  0  0  0  0  0  0  0  0  0
   -4.5003   -2.9634   -1.6016 C   0  0  0  0  0  0  0  0  0  0  0  0
   -1.6123    1.5633   -1.6744 C   0  0  0  0  0  0  0  0  0  0  0  0
   -8.4818   -0.8393   -2.6778 C   0  0  0  0  0  0  0  0  0  0  0  0
   -6.8459    0.2340   -1.1031 C   0  0  0  0  0  0  0  0  0  0  0  0
   -8.1020   -3.2161   -1.0882 C   0  0  0  0  0  0  0  0  0  0  0  0
    0.6342    0.2887    0.1440 C   0  0  0  0  0  0  0  0  0  0  0  0
   -2.1776   -5.2322   -1.2603 C   0  0  0  0  0  0  0  0  0  0  0  0
   -2.9980   -4.3848   -0.2813 C   0  0  0  0  0  0  0  0  0  0  0  0
   -6.0881   -1.5328   -2.7855 C   0  0  0  0  0  0  0  0  0  0  0  0
    1.1642    2.9999    2.7367 C   0  0  0  0  0  0  0  0  0  0  0  0
    1.5313    1.8941    1.7491 C   0  0  0  0  0  0  0  0  0  0  0  0
   -1.6936   -6.5267   -0.6335 C   0  0  0  0  0  0  0  0  0  0  0  0
   -7.2168   -1.0587   -1.8338 C   0  0  0  0  0  0  0  0  0  0  0  0
   -4.7884   -1.6983   -2.1182 N   0  0  0  0  0  0  0  0  0  0  0  0
   -3.3348   -3.0688   -0.8371 N   0  0  0  0  0  0  0  0  0  0  0  0
    2.3818    3.5587    3.3430 N   0  0  0  0  0  0  0  0  0  0  0  0
    0.3305    1.3313    1.1307 N   0  0  0  0  0  0  0  0  0  0  0  0
   -4.1832    0.4315   -2.7491 O   0  0  0  0  0  0  0  0  0  0  0  0
   -5.2065   -3.9458   -1.8025 O   0  0  0  0  0  0  0  0  0  0  0  0
   -7.4208   -2.0064   -0.7714 O   0  0  0  0  0  0  0  0  0  0  0  0
   -2.7878   -7.3001   -0.2059 F   0  0  0  0  0  0  0  0  0  0  0  0
   -0.9601   -2.0363    0.1156 S   0  0  0  0  0  0  0  0  0  0  0  0
   -2.5105    2.0973   -1.3526 H   0  0  0  0  0  0  0  0  0  0  0  0
   -0.7386    2.1114   -1.3192 H   0  0  0  0  0  0  0  0  0  0  0  0
   -1.6311    1.5586   -2.7681 H   0  0  0  0  0  0  0  0  0  0  0  0
   -8.7377   -1.7158   -3.2811 H   0  0  0  0  0  0  0  0  0  0  0  0
   -9.3305   -0.6077   -2.0272 H   0  0  0  0  0  0  0  0  0  0  0  0
   -8.3352    0.0044   -3.3588 H   0  0  0  0  0  0  0  0  0  0  0  0
   -6.0070    0.0598   -0.4243 H   0  0  0  0  0  0  0  0  0  0  0  0
   -7.6986    0.5636   -0.5025 H   0  0  0  0  0  0  0  0  0  0  0  0
   -6.5653    1.0220   -1.8043 H   0  0  0  0  0  0  0  0  0  0  0  0
   -8.0240   -3.8450   -0.1985 H   0  0  0  0  0  0  0  0  0  0  0  0
   -7.6366   -3.7519   -1.9215 H   0  0  0  0  0  0  0  0  0  0  0  0
   -9.1639   -3.0379   -1.3030 H   0  0  0  0  0  0  0  0  0  0  0  0
    1.3205   -0.4821    0.5402 H   0  0  0  0  0  0  0  0  0  0  0  0
    1.1636    0.7619   -0.6920 H   0  0  0  0  0  0  0  0  0  0  0  0
   -1.2958   -4.6725   -1.5953 H   0  0  0  0  0  0  0  0  0  0  0  0
   -2.7890   -5.4509   -2.1408 H   0  0  0  0  0  0  0  0  0  0  0  0
   -2.4511   -4.2206    0.6529 H   0  0  0  0  0  0  0  0  0  0  0  0
   -3.9326   -4.8883   -0.0406 H   0  0  0  0  0  0  0  0  0  0  0  0
   -6.3525   -2.4895   -3.2346 H   0  0  0  0  0  0  0  0  0  0  0  0
   -5.9502   -0.7949   -3.5756 H   0  0  0  0  0  0  0  0  0  0  0  0
    0.4436    2.6023    3.4742 H   0  0  0  0  0  0  0  0  0  0  0  0
    0.6510    3.7967    2.1899 H   0  0  0  0  0  0  0  0  0  0  0  0
    2.1625    2.3223    0.9629 H   0  0  0  0  0  0  0  0  0  0  0  0
    2.1433    1.1264    2.2624 H   0  0  0  0  0  0  0  0  0  0  0  0
   -1.0693   -6.3413    0.2482 H   0  0  0  0  0  0  0  0  0  0  0  0
   -1.1305   -7.1299   -1.3520 H   0  0  0  0  0  0  0  0  0  0  0  0
    2.8011    2.8743    3.9709 H   0  0  0  0  0  0  0  0  0  0  0  0
    2.1429    4.3656    3.9163 H   0  0  0  0  0  0  0  0  0  0  0  0
   -0.2749    0.9347    1.8479 H   0  0  0  0  0  0  0  0  0  0  0  0
  1  2  1  0  0  0  0
  1  4  1  0  0  0  0
  1  5  2  0  0  0  0
  2  3  2  0  0  0  0
  2  7  1  0  0  0  0
  3 11  1  0  0  0  0
  3 27  1  0  0  0  0
  4 19  1  0  0  0  0
  4 23  2  0  0  0  0
  5 20  1  0  0  0  0
  5 27  1  0  0  0  0
  6 19  1  0  0  0  0
  6 20  1  0  0  0  0
  6 24  2  0  0  0  0
  7 28  1  0  0  0  0
  7 29  1  0  0  0  0
  7 30  1  0  0  0  0
  8 18  1  0  0  0  0
  8 31  1  0  0  0  0
  8 32  1  0  0  0  0
  8 33  1  0  0  0  0
  9 18  1  0  0  0  0
  9 34  1  0  0  0  0
  9 35  1  0  0  0  0
  9 36  1  0  0  0  0
 10 25  1  0  0  0  0
 10 37  1  0  0  0  0
 10 38  1  0  0  0  0
 10 39  1  0  0  0  0
 11 22  1  0  0  0  0
 11 40  1  0  0  0  0
 11 41  1  0  0  0  0
 12 13  1  0  0  0  0
 12 17  1  0  0  0  0
 12 42  1  0  0  0  0
 12 43  1  0  0  0  0
 13 20  1  0  0  0  0
 13 44  1  0  0  0  0
 13 45  1  0  0  0  0
 14 18  1  0  0  0  0
 14 19  1  0  0  0  0
 14 46  1  0  0  0  0
 14 47  1  0  0  0  0
 15 16  1  0  0  0  0
 15 21  1  0  0  0  0
 15 48  1  0  0  0  0
 15 49  1  0  0  0  0
 16 22  1  0  0  0  0
 16 50  1  0  0  0  0
 16 51  1  0  0  0  0
 17 26  1  0  0  0  0
 17 52  1  0  0  0  0
 17 53  1  0  0  0  0
 18 25  1  0  0  0  0
 21 54  1  0  0  0  0
 21 55  1  0  0  0  0
 22 56  1  0  0  0  0
M  END
$$$$
