
  -OEChem-05262117483D

 29 30  0     1  0  0  0  0  0999 V2000
   -1.6630    1.0060   -4.6760 C   0  0  0  0  0  0  0  0  0  0  0  0
   -1.6572    0.6240   -3.3384 C   0  0  0  0  0  0  0  0  0  0  0  0
   -0.5064    0.9778   -5.4660 C   0  0  0  0  0  0  0  0  0  0  0  0
    0.7196    0.1657   -3.5317 C   0  0  0  0  0  0  0  0  0  0  0  0
   -0.4459    0.1964   -2.7555 C   0  0  0  0  0  0  0  0  0  0  0  0
    0.6899    0.5526   -4.8790 C   0  0  0  0  0  0  0  0  0  0  0  0
   -1.3050    0.0494   -0.4170 C   0  0  0  0  0  0  0  0  0  0  0  0
    0.3544   -1.4167    0.4991 C   0  0  0  0  0  0  0  0  0  0  0  0
    0.8182   -0.8830   -0.8639 C   0  0  0  0  0  0  0  0  0  0  0  0
   -0.7249   -0.4170    0.9208 C   0  0  2  0  0  0  0  0  0  0  0  0
    1.9315    0.8679   -6.8994 C   0  0  0  0  0  0  0  0  0  0  0  0
   -0.3784   -0.2189   -1.4048 N   0  0  0  0  0  0  0  0  0  0  0  0
   -1.7826   -0.9664    1.7619 N   0  0  0  0  0  0  0  0  0  0  0  0
   -2.4015    0.5837   -0.5403 O   0  0  0  0  0  0  0  0  0  0  0  0
    1.8947    0.4793   -5.5301 O   0  0  0  0  0  0  0  0  0  0  0  0
   -2.5980    1.3333   -5.1234 H   0  0  0  0  0  0  0  0  0  0  0  0
   -2.5602    0.6581   -2.7466 H   0  0  0  0  0  0  0  0  0  0  0  0
   -0.5541    1.2806   -6.5054 H   0  0  0  0  0  0  0  0  0  0  0  0
    1.6748   -0.1418   -3.1232 H   0  0  0  0  0  0  0  0  0  0  0  0
   -0.1142   -2.3982    0.3856 H   0  0  0  0  0  0  0  0  0  0  0  0
    1.1801   -1.5028    1.2100 H   0  0  0  0  0  0  0  0  0  0  0  0
    1.6412   -0.1632   -0.7642 H   0  0  0  0  0  0  0  0  0  0  0  0
    1.1427   -1.6798   -1.5378 H   0  0  0  0  0  0  0  0  0  0  0  0
   -0.2451    0.4797    1.3542 H   0  0  0  0  0  0  0  0  0  0  0  0
    2.9669    0.7400   -7.2183 H   0  0  0  0  0  0  0  0  0  0  0  0
    1.6397    1.9179   -7.0255 H   0  0  0  0  0  0  0  0  0  0  0  0
    1.2814    0.2324   -7.5134 H   0  0  0  0  0  0  0  0  0  0  0  0
   -2.6257   -0.4108    1.6110 H   0  0  0  0  0  0  0  0  0  0  0  0
   -1.5345   -0.8823    2.7447 H   0  0  0  0  0  0  0  0  0  0  0  0
  1  2  1  0  0  0  0
  1  3  2  0  0  0  0
  1 16  1  0  0  0  0
  2  5  2  0  0  0  0
  2 17  1  0  0  0  0
  3  6  1  0  0  0  0
  3 18  1  0  0  0  0
  4  5  1  0  0  0  0
  4  6  2  0  0  0  0
  4 19  1  0  0  0  0
  5 12  1  0  0  0  0
  6 15  1  0  0  0  0
  7 10  1  0  0  0  0
  7 12  1  0  0  0  0
  7 14  2  0  0  0  0
  8  9  1  0  0  0  0
  8 10  1  0  0  0  0
  8 20  1  0  0  0  0
  8 21  1  0  0  0  0
  9 12  1  0  0  0  0
  9 22  1  0  0  0  0
  9 23  1  0  0  0  0
 10 13  1  0  0  0  0
 10 24  1  0  0  0  0
 11 15  1  0  0  0  0
 11 25  1  0  0  0  0
 11 26  1  0  0  0  0
 11 27  1  0  0  0  0
 13 28  1  0  0  0  0
 13 29  1  0  0  0  0
M  END
$$$$
