
  -OEChem-05262117483D

 64 66  0     0  0  0  0  0  0999 V2000
   -0.1378    5.1802   -2.4380 C   0  0  0  0  0  0  0  0  0  0  0  0
    1.2127    6.6856   -1.1110 C   0  0  0  0  0  0  0  0  0  0  0  0
   -0.9601    6.2423   -2.8202 C   0  0  0  0  0  0  0  0  0  0  0  0
    0.4030    7.7595   -1.4891 C   0  0  0  0  0  0  0  0  0  0  0  0
    0.9546    5.3869   -1.5803 C   0  0  0  0  0  0  0  0  0  0  0  0
    1.8374    4.2529   -1.1765 C   0  0  0  0  0  0  0  0  0  0  0  0
    2.5612    3.5291   -2.1480 C   0  0  0  0  0  0  0  0  0  0  0  0
    1.9725    3.9068    0.1817 C   0  0  0  0  0  0  0  0  0  0  0  0
   -0.6722    7.5146   -2.3373 C   0  0  0  0  0  0  0  0  0  0  0  0
    3.3733    2.4685   -1.7073 C   0  0  0  0  0  0  0  0  0  0  0  0
    2.8714    2.8774    0.5221 C   0  0  0  0  0  0  0  0  0  0  0  0
   -0.1054    3.5199   -8.2845 C   0  0  0  0  0  0  0  0  0  0  0  0
    0.7213    4.6667   -7.6875 C   0  0  0  0  0  0  0  0  0  0  0  0
    0.4601    2.1556   -7.8660 C   0  0  0  0  0  0  0  0  0  0  0  0
    0.8335    4.5449   -6.1614 C   0  0  0  0  0  0  0  0  0  0  0  0
    0.5789    2.0453   -6.3399 C   0  0  0  0  0  0  0  0  0  0  0  0
    1.4144    3.1854   -5.7441 C   0  0  0  0  0  0  0  0  0  0  0  0
    3.7356    0.0966   -2.4544 C   0  0  0  0  0  0  0  0  0  0  0  0
    5.6679    1.7429   -2.4351 C   0  0  0  0  0  0  0  0  0  0  0  0
    4.6554    2.3576    2.2245 C   0  0  0  0  0  0  0  0  0  0  0  0
    2.4305    1.1369    2.2717 C   0  0  0  0  0  0  0  0  0  0  0  0
    2.4627    3.8759   -3.6173 C   0  0  0  0  0  0  0  0  0  0  0  0
    1.1559    4.5942    1.2472 C   0  0  0  0  0  0  0  0  0  0  0  0
    4.1552    1.5639   -2.6517 C   0  0  0  0  0  0  0  0  0  0  0  0
    3.1448    2.4654    1.9617 C   0  0  0  0  0  0  0  0  0  0  0  0
    3.5272    2.1776   -0.4085 N   0  0  0  0  0  0  0  0  0  0  0  0
    1.4421    3.0498   -4.2813 N   0  0  0  0  0  0  0  0  0  0  0  0
    1.9569    5.6238    1.8625 O   0  0  0  0  0  0  0  0  0  0  0  0
   -1.4664    8.5542   -2.7087 F   0  0  0  0  0  0  0  0  0  0  0  0
   -0.3211    4.1862   -2.8330 H   0  0  0  0  0  0  0  0  0  0  0  0
    2.0485    6.8522   -0.4388 H   0  0  0  0  0  0  0  0  0  0  0  0
   -1.8060    6.0949   -3.4849 H   0  0  0  0  0  0  0  0  0  0  0  0
    0.5959    8.7687   -1.1378 H   0  0  0  0  0  0  0  0  0  0  0  0
   -0.1344    3.5994   -9.3776 H   0  0  0  0  0  0  0  0  0  0  0  0
   -1.1436    3.6031   -7.9343 H   0  0  0  0  0  0  0  0  0  0  0  0
    1.7277    4.6546   -8.1285 H   0  0  0  0  0  0  0  0  0  0  0  0
    0.2779    5.6338   -7.9510 H   0  0  0  0  0  0  0  0  0  0  0  0
   -0.1715    1.3461   -8.2497 H   0  0  0  0  0  0  0  0  0  0  0  0
    1.4517    2.0206   -8.3192 H   0  0  0  0  0  0  0  0  0  0  0  0
    1.4480    5.3616   -5.7684 H   0  0  0  0  0  0  0  0  0  0  0  0
   -0.1577    4.6480   -5.7014 H   0  0  0  0  0  0  0  0  0  0  0  0
   -0.4200    2.0768   -5.8850 H   0  0  0  0  0  0  0  0  0  0  0  0
    1.0233    1.0791   -6.0650 H   0  0  0  0  0  0  0  0  0  0  0  0
    2.4378    3.1132   -6.1634 H   0  0  0  0  0  0  0  0  0  0  0  0
    3.9465   -0.2238   -1.4307 H   0  0  0  0  0  0  0  0  0  0  0  0
    4.2822   -0.5545   -3.1454 H   0  0  0  0  0  0  0  0  0  0  0  0
    2.6629   -0.0391   -2.6348 H   0  0  0  0  0  0  0  0  0  0  0  0
    5.9344    1.4848   -1.4063 H   0  0  0  0  0  0  0  0  0  0  0  0
    5.9727    2.7796   -2.6146 H   0  0  0  0  0  0  0  0  0  0  0  0
    6.2342    1.0973   -3.1156 H   0  0  0  0  0  0  0  0  0  0  0  0
    5.1057    1.5957    1.5833 H   0  0  0  0  0  0  0  0  0  0  0  0
    4.8381    2.0887    3.2708 H   0  0  0  0  0  0  0  0  0  0  0  0
    5.1558    3.3107    2.0245 H   0  0  0  0  0  0  0  0  0  0  0  0
    2.8026    0.3455    1.6134 H   0  0  0  0  0  0  0  0  0  0  0  0
    1.3479    1.2189    2.1214 H   0  0  0  0  0  0  0  0  0  0  0  0
    2.6079    0.8348    3.3099 H   0  0  0  0  0  0  0  0  0  0  0  0
    2.1799    4.9244   -3.7210 H   0  0  0  0  0  0  0  0  0  0  0  0
    3.4507    3.7748   -4.0962 H   0  0  0  0  0  0  0  0  0  0  0  0
    0.2545    5.0291    0.8033 H   0  0  0  0  0  0  0  0  0  0  0  0
    0.8362    3.8655    2.0026 H   0  0  0  0  0  0  0  0  0  0  0  0
    3.9291    1.8388   -3.6852 H   0  0  0  0  0  0  0  0  0  0  0  0
    2.7545    3.2392    2.6264 H   0  0  0  0  0  0  0  0  0  0  0  0
    1.6195    2.0738   -4.0474 H   0  0  0  0  0  0  0  0  0  0  0  0
    1.4092    6.0626    2.5333 H   0  0  0  0  0  0  0  0  0  0  0  0
  1  3  1  0  0  0  0
  1  5  2  0  0  0  0
  1 30  1  0  0  0  0
  2  4  2  0  0  0  0
  2  5  1  0  0  0  0
  2 31  1  0  0  0  0
  3  9  2  0  0  0  0
  3 32  1  0  0  0  0
  4  9  1  0  0  0  0
  4 33  1  0  0  0  0
  5  6  1  0  0  0  0
  6  7  1  0  0  0  0
  6  8  2  0  0  0  0
  7 10  2  0  0  0  0
  7 22  1  0  0  0  0
  8 11  1  0  0  0  0
  8 23  1  0  0  0  0
  9 29  1  0  0  0  0
 10 24  1  0  0  0  0
 10 26  1  0  0  0  0
 11 25  1  0  0  0  0
 11 26  2  0  0  0  0
 12 13  1  0  0  0  0
 12 14  1  0  0  0  0
 12 34  1  0  0  0  0
 12 35  1  0  0  0  0
 13 15  1  0  0  0  0
 13 36  1  0  0  0  0
 13 37  1  0  0  0  0
 14 16  1  0  0  0  0
 14 38  1  0  0  0  0
 14 39  1  0  0  0  0
 15 17  1  0  0  0  0
 15 40  1  0  0  0  0
 15 41  1  0  0  0  0
 16 17  1  0  0  0  0
 16 42  1  0  0  0  0
 16 43  1  0  0  0  0
 17 27  1  0  0  0  0
 17 44  1  0  0  0  0
 18 24  1  0  0  0  0
 18 45  1  0  0  0  0
 18 46  1  0  0  0  0
 18 47  1  0  0  0  0
 19 24  1  0  0  0  0
 19 48  1  0  0  0  0
 19 49  1  0  0  0  0
 19 50  1  0  0  0  0
 20 25  1  0  0  0  0
 20 51  1  0  0  0  0
 20 52  1  0  0  0  0
 20 53  1  0  0  0  0
 21 25  1  0  0  0  0
 21 54  1  0  0  0  0
 21 55  1  0  0  0  0
 21 56  1  0  0  0  0
 22 27  1  0  0  0  0
 22 57  1  0  0  0  0
 22 58  1  0  0  0  0
 23 28  1  0  0  0  0
 23 59  1  0  0  0  0
 23 60  1  0  0  0  0
 24 61  1  0  0  0  0
 25 62  1  0  0  0  0
 27 63  1  0  0  0  0
 28 64  1  0  0  0  0
M  END
$$$$
