56
0 1 C18FH29N4O3S
C                    -3.260763788460    -0.842059036261    -1.236837253035
C                    -2.226042865858     0.117362583399    -0.924794787169
C                    -1.166330761007    -0.464584898400    -0.282676834915
C                    -4.533606221867    -0.596787050148    -1.893757286725
C                    -2.955762835023    -2.122227245511    -0.822963935911
C                    -5.004536113776    -3.045248569343    -1.679554215419
C                    -2.298779183649     1.576493794453    -1.278706685295
C                    -7.632439688320    -1.700880194595    -5.201697398145
C                    -5.620236973454    -3.155398324482    -4.828448507473
C                    -5.763203579228     0.497781941694    -5.154542808493
C                     0.123278250145     0.158067439496     0.173626593600
C                    -2.649695737676    -5.311207854296    -1.582031422292
C                    -3.439204920991    -4.538351242788    -0.519430697801
C                    -6.503408496309    -1.623735148000    -2.979557267134
C                     3.105663196871     1.463254655132    -1.766765688965
C                     2.283365643238     1.030180465716    -0.553799270646
C                    -2.130978730595    -6.638286067491    -1.059425608309
C                    -6.268549871019    -1.807638458283    -4.501974876354
N                    -5.284469387108    -1.768897093059    -2.169857089215
N                    -3.804689014530    -3.193381833856    -0.979553203537
N                     4.435107430168     1.924853914542    -1.335982090732
N                     0.959069473393     0.558904518370    -0.964478765175
O                    -4.964367483530     0.513454043382    -2.194323893890
O                    -5.756666695479    -4.001120298937    -1.846292038300
O                    -5.320021866959    -0.846123969214    -4.994686294932
F                    -3.201377939639    -7.448071114850    -0.640203754238
S                    -1.405355815439    -2.200016179060    -0.044733926711
H                    -3.142667506151     2.054933594708    -0.773440547977
H                    -1.369788195828     2.084889258249    -1.016733019730
H                    -2.470183238256     1.699672310569    -2.351649987864
H                    -8.166589095688    -0.783759487709    -4.935028538985
H                    -7.498860818557    -1.719969071821    -6.287482175292
H                    -8.264137220528    -2.549284203198    -4.921684393683
H                    -4.606486835700    -3.196383914382    -4.420886469978
H                    -5.546641975678    -3.263568522929    -5.914428524553
H                    -6.194264423986    -3.986443696001    -4.415062784814
H                    -4.870779578057     1.078878813461    -5.397831009787
H                    -6.192296869032     0.907428551100    -4.234940228739
H                    -6.481308971178     0.591235801288    -5.979820846929
H                    -0.093915794257     1.057213610526     0.763328040274
H                     0.645060166962    -0.534777360796     0.858488305869
H                    -1.786591016824    -4.721187927610    -1.913582588124
H                    -3.291601029484    -5.479311954525    -2.452176501967
H                    -2.859208309189    -4.429504766450     0.402540209267
H                    -4.360568565460    -5.065707591718    -0.278919428006
H                    -6.898536250506    -0.627981533415    -2.780992858807
H                    -7.221682526453    -2.366221623208    -2.632895477801
H                     2.527606723351     2.207748802218    -2.336076736480
H                     3.251516808295     0.598360262245    -2.426313002837
H                     2.855983736105     0.279981613670     0.018214427761
H                     2.139503574371     1.892007011933     0.112370997648
H                    -1.473721886194    -6.502900189848    -0.192708670899
H                    -1.592051366317    -7.188362121368    -1.836747126073
H                     4.340811983013     2.805996026919    -0.832271993710
H                     5.010420405606     2.125256054777    -2.152090318916
H                     1.059921844238    -0.240254132006    -1.588889087974
