
  -OEChem-05262117483D

 57 58  0     0  0  0  0  0  0999 V2000
   -2.7666   -1.1367   -1.1235 C   0  0  0  0  0  0  0  0  0  0  0  0
   -1.8500   -0.0816   -0.8086 C   0  0  0  0  0  0  0  0  0  0  0  0
   -0.8053   -0.5324   -0.0281 C   0  0  0  0  0  0  0  0  0  0  0  0
   -3.9941   -1.0336   -1.9069 C   0  0  0  0  0  0  0  0  0  0  0  0
   -2.4124   -2.3566   -0.5714 C   0  0  0  0  0  0  0  0  0  0  0  0
   -4.3147   -3.4730   -1.5239 C   0  0  0  0  0  0  0  0  0  0  0  0
   -2.0297    1.3365   -1.2740 C   0  0  0  0  0  0  0  0  0  0  0  0
   -8.5272   -1.8308   -2.4092 C   0  0  0  0  0  0  0  0  0  0  0  0
   -7.0015   -0.6023   -0.8383 C   0  0  0  0  0  0  0  0  0  0  0  0
   -7.8016   -4.1801   -0.9311 C   0  0  0  0  0  0  0  0  0  0  0  0
    0.3470    0.2419    0.4803 C   0  0  0  0  0  0  0  0  0  0  0  0
   -1.8268   -5.5647   -1.1642 C   0  0  0  0  0  0  0  0  0  0  0  0
   -2.7144   -4.7899   -0.1851 C   0  0  0  0  0  0  0  0  0  0  0  0
   -6.0654   -2.1683   -2.6282 C   0  0  0  0  0  0  0  0  0  0  0  0
    3.7468    1.1385   -1.2891 C   0  0  0  0  0  0  0  0  0  0  0  0
    2.6962    1.1088   -0.1735 C   0  0  0  0  0  0  0  0  0  0  0  0
   -1.3243   -6.8651   -0.5566 C   0  0  0  0  0  0  0  0  0  0  0  0
   -7.2136   -1.9028   -1.6180 C   0  0  0  0  0  0  0  0  0  0  0  0
   -4.7409   -2.2233   -1.9787 N   0  0  0  0  0  0  0  0  0  0  0  0
   -3.1459   -3.4898   -0.7269 N   0  0  0  0  0  0  0  0  0  0  0  0
    4.8695    1.9384   -0.8139 N   0  0  0  0  0  0  0  0  0  0  0  0
    1.4705    0.3265   -0.5814 N   0  3  0  0  0  0  0  0  0  0  0  0
   -4.3642   -0.0024   -2.4600 O   0  0  0  0  0  0  0  0  0  0  0  0
   -4.8823   -4.5172   -1.7898 O   0  0  0  0  0  0  0  0  0  0  0  0
   -7.2182   -2.9194   -0.6033 O   0  0  0  0  0  0  0  0  0  0  0  0
   -2.4121   -7.6569   -0.1657 F   0  0  0  0  0  0  0  0  0  0  0  0
   -0.9321   -2.2603    0.3419 S   0  0  0  0  0  0  0  0  0  0  0  0
   -3.0004    1.7216   -0.9525 H   0  0  0  0  0  0  0  0  0  0  0  0
   -1.2507    2.0022   -0.8890 H   0  0  0  0  0  0  0  0  0  0  0  0
   -2.0369    1.3877   -2.3662 H   0  0  0  0  0  0  0  0  0  0  0  0
   -8.6878   -2.7134   -3.0349 H   0  0  0  0  0  0  0  0  0  0  0  0
   -9.3731   -1.7353   -1.7227 H   0  0  0  0  0  0  0  0  0  0  0  0
   -8.5222   -0.9534   -3.0627 H   0  0  0  0  0  0  0  0  0  0  0  0
   -6.1250   -0.6822   -0.1892 H   0  0  0  0  0  0  0  0  0  0  0  0
   -7.8694   -0.4241   -0.1981 H   0  0  0  0  0  0  0  0  0  0  0  0
   -6.8648    0.2489   -1.5084 H   0  0  0  0  0  0  0  0  0  0  0  0
   -7.5738   -4.8415   -0.0929 H   0  0  0  0  0  0  0  0  0  0  0  0
   -7.3700   -4.6172   -1.8375 H   0  0  0  0  0  0  0  0  0  0  0  0
   -8.8901   -4.1037   -1.0361 H   0  0  0  0  0  0  0  0  0  0  0  0
    0.0913    1.2777    0.7082 H   0  0  0  0  0  0  0  0  0  0  0  0
    0.8129   -0.2001    1.3632 H   0  0  0  0  0  0  0  0  0  0  0  0
   -0.9547   -4.9640   -1.4521 H   0  0  0  0  0  0  0  0  0  0  0  0
   -2.4007   -5.7783   -2.0702 H   0  0  0  0  0  0  0  0  0  0  0  0
   -2.1981   -4.5990    0.7616 H   0  0  0  0  0  0  0  0  0  0  0  0
   -3.6131   -5.3625    0.0366 H   0  0  0  0  0  0  0  0  0  0  0  0
   -6.2196   -3.1189   -3.1369 H   0  0  0  0  0  0  0  0  0  0  0  0
   -6.0277   -1.3697   -3.3682 H   0  0  0  0  0  0  0  0  0  0  0  0
    4.0071    0.1081   -1.5863 H   0  0  0  0  0  0  0  0  0  0  0  0
    3.3187    1.6284   -2.1708 H   0  0  0  0  0  0  0  0  0  0  0  0
    2.3736    2.1213    0.0736 H   0  0  0  0  0  0  0  0  0  0  0  0
    3.0856    0.6363    0.7314 H   0  0  0  0  0  0  0  0  0  0  0  0
   -0.7157   -6.6879    0.3379 H   0  0  0  0  0  0  0  0  0  0  0  0
   -0.7398   -7.4395   -1.2811 H   0  0  0  0  0  0  0  0  0  0  0  0
    5.3947    2.3326   -1.5900 H   0  0  0  0  0  0  0  0  0  0  0  0
    5.5173    1.3828   -0.2601 H   0  0  0  0  0  0  0  0  0  0  0  0
    1.7297   -0.6317   -0.8438 H   0  0  0  0  0  0  0  0  0  0  0  0
    1.0577    0.7358   -1.4277 H   0  0  0  0  0  0  0  0  0  0  0  0
  1  2  1  0  0  0  0
  1  4  1  0  0  0  0
  1  5  2  0  0  0  0
  2  3  2  0  0  0  0
  2  7  1  0  0  0  0
  3 11  1  0  0  0  0
  3 27  1  0  0  0  0
  4 19  1  0  0  0  0
  4 23  2  0  0  0  0
  5 20  1  0  0  0  0
  5 27  1  0  0  0  0
  6 19  1  0  0  0  0
  6 20  1  0  0  0  0
  6 24  2  0  0  0  0
  7 28  1  0  0  0  0
  7 29  1  0  0  0  0
  7 30  1  0  0  0  0
  8 18  1  0  0  0  0
  8 31  1  0  0  0  0
  8 32  1  0  0  0  0
  8 33  1  0  0  0  0
  9 18  1  0  0  0  0
  9 34  1  0  0  0  0
  9 35  1  0  0  0  0
  9 36  1  0  0  0  0
 10 25  1  0  0  0  0
 10 37  1  0  0  0  0
 10 38  1  0  0  0  0
 10 39  1  0  0  0  0
 11 22  1  0  0  0  0
 11 40  1  0  0  0  0
 11 41  1  0  0  0  0
 12 13  1  0  0  0  0
 12 17  1  0  0  0  0
 12 42  1  0  0  0  0
 12 43  1  0  0  0  0
 13 20  1  0  0  0  0
 13 44  1  0  0  0  0
 13 45  1  0  0  0  0
 14 18  1  0  0  0  0
 14 19  1  0  0  0  0
 14 46  1  0  0  0  0
 14 47  1  0  0  0  0
 15 16  1  0  0  0  0
 15 21  1  0  0  0  0
 15 48  1  0  0  0  0
 15 49  1  0  0  0  0
 16 22  1  0  0  0  0
 16 50  1  0  0  0  0
 16 51  1  0  0  0  0
 17 26  1  0  0  0  0
 17 52  1  0  0  0  0
 17 53  1  0  0  0  0
 18 25  1  0  0  0  0
 21 54  1  0  0  0  0
 21 55  1  0  0  0  0
 22 56  1  0  0  0  0
 22 57  1  0  0  0  0
M  CHG  1  22   1
M  END
$$$$
