
  -OEChem-05262117483D

 41 43  0     1  0  0  0  0  0999 V2000
   -1.6692   -5.4745    3.5783 C   0  0  0  0  0  0  0  0  0  0  0  0
   -2.3487   -4.3944    4.0813 C   0  0  0  0  0  0  0  0  0  0  0  0
   -0.5316   -3.5911    3.2613 C   0  0  0  0  0  0  0  0  0  0  0  0
   -2.1306   -6.8892    3.6771 C   0  0  0  0  0  0  0  0  0  0  0  0
   -0.1717   -0.1585    1.6759 C   0  0  0  0  0  0  0  0  0  0  0  0
   -0.2697   -0.3981    3.1896 C   0  0  0  0  0  0  0  0  0  0  0  0
   -0.3659   -1.4739    0.9078 C   0  0  0  0  0  0  0  0  0  0  0  0
    0.6805   -1.5213    3.6310 C   0  0  0  0  0  0  0  0  0  0  0  0
    0.6258   -2.5342    1.4046 C   0  0  0  0  0  0  0  0  0  0  0  0
   -4.1914   -5.8026    4.4191 C   0  0  0  0  0  0  0  0  0  0  0  0
    0.6481   -5.7119    2.5595 C   0  0  0  0  0  0  0  0  0  0  0  0
   -4.4962   -3.3855    4.5667 C   0  0  0  0  0  0  0  0  0  0  0  0
   -3.9384   -8.1930    4.6062 C   0  0  0  0  0  0  0  0  0  0  0  0
   -1.6573   -3.2227    3.8691 N   0  0  0  0  0  0  0  0  0  0  0  0
   -0.4762   -4.9536    3.0708 N   0  0  0  0  0  0  0  0  0  0  0  0
   -3.5830   -4.5101    4.7360 N   0  0  2  0  0  0  0  0  0  0  0  0
    0.5282   -2.7696    2.8610 N   0  0  0  0  0  0  0  0  0  0  0  0
   -3.2556   -6.9076    4.6274 N   0  0  1  0  0  0  0  0  0  0  0  0
   -2.4238   -7.2966    2.6868 H   0  0  0  0  0  0  0  0  0  0  0  0
   -1.3500   -7.5545    4.0722 H   0  0  0  0  0  0  0  0  0  0  0  0
    0.8166    0.2575    1.4313 H   0  0  0  0  0  0  0  0  0  0  0  0
   -0.9125    0.5837    1.3577 H   0  0  0  0  0  0  0  0  0  0  0  0
   -0.0221    0.5183    3.7399 H   0  0  0  0  0  0  0  0  0  0  0  0
   -1.2911   -0.6824    3.4577 H   0  0  0  0  0  0  0  0  0  0  0  0
   -1.3874   -1.8435    1.0590 H   0  0  0  0  0  0  0  0  0  0  0  0
   -0.2287   -1.3206   -0.1699 H   0  0  0  0  0  0  0  0  0  0  0  0
    1.7220   -1.1958    3.5002 H   0  0  0  0  0  0  0  0  0  0  0  0
    0.5354   -1.7573    4.6872 H   0  0  0  0  0  0  0  0  0  0  0  0
    0.4730   -3.4834    0.8836 H   0  0  0  0  0  0  0  0  0  0  0  0
    1.6538   -2.2103    1.1930 H   0  0  0  0  0  0  0  0  0  0  0  0
   -5.0452   -5.9522    5.0869 H   0  0  0  0  0  0  0  0  0  0  0  0
   -4.5758   -5.7972    3.3709 H   0  0  0  0  0  0  0  0  0  0  0  0
    0.4840   -6.0383    1.5255 H   0  0  0  0  0  0  0  0  0  0  0  0
    1.5360   -5.0784    2.5975 H   0  0  0  0  0  0  0  0  0  0  0  0
    0.8152   -6.5956    3.1826 H   0  0  0  0  0  0  0  0  0  0  0  0
   -5.3531   -3.5137    5.2360 H   0  0  0  0  0  0  0  0  0  0  0  0
   -4.8673   -3.2858    3.5312 H   0  0  0  0  0  0  0  0  0  0  0  0
   -3.9771   -2.4639    4.8325 H   0  0  0  0  0  0  0  0  0  0  0  0
   -4.6968   -8.2248    5.3948 H   0  0  0  0  0  0  0  0  0  0  0  0
   -3.2154   -8.9914    4.8026 H   0  0  0  0  0  0  0  0  0  0  0  0
   -4.4320   -8.4125    3.6396 H   0  0  0  0  0  0  0  0  0  0  0  0
  1  2  2  0  0  0  0
  1  4  1  0  0  0  0
  1 15  1  0  0  0  0
  2 14  1  0  0  0  0
  2 16  1  0  0  0  0
  3 14  2  0  0  0  0
  3 15  1  0  0  0  0
  3 17  1  0  0  0  0
  4 18  1  0  0  0  0
  4 19  1  0  0  0  0
  4 20  1  0  0  0  0
  5  6  1  0  0  0  0
  5  7  1  0  0  0  0
  5 21  1  0  0  0  0
  5 22  1  0  0  0  0
  6  8  1  0  0  0  0
  6 23  1  0  0  0  0
  6 24  1  0  0  0  0
  7  9  1  0  0  0  0
  7 25  1  0  0  0  0
  7 26  1  0  0  0  0
  8 17  1  0  0  0  0
  8 27  1  0  0  0  0
  8 28  1  0  0  0  0
  9 17  1  0  0  0  0
  9 29  1  0  0  0  0
  9 30  1  0  0  0  0
 10 16  1  0  0  0  0
 10 18  1  0  0  0  0
 10 31  1  0  0  0  0
 10 32  1  0  0  0  0
 11 15  1  0  0  0  0
 11 33  1  0  0  0  0
 11 34  1  0  0  0  0
 11 35  1  0  0  0  0
 12 16  1  0  0  0  0
 12 36  1  0  0  0  0
 12 37  1  0  0  0  0
 12 38  1  0  0  0  0
 13 18  1  0  0  0  0
 13 39  1  0  0  0  0
 13 40  1  0  0  0  0
 13 41  1  0  0  0  0
M  END
$$$$
