28
0 1 C12H12N2O2
C                     2.187276110711    -0.908423795847    -1.086799908374
C                     0.876116124816    -0.867242346879    -0.581030370067
C                     2.784766701961    -2.135416728190    -1.334827251430
C                     0.175022520747    -2.039471343535    -0.328066269312
C                     0.712358273437    -5.670403613330    -0.589134237497
C                     2.099865502488    -3.339005131482    -1.088558692335
C                     1.984996126934    -5.808146732025    -1.080677296296
C                     0.780454940074    -3.288557826597    -0.579639396018
C                     2.778007865414    -4.624181336268    -1.368204484855
C                     2.446707026861    -7.224869030528    -1.280426961031
C                    -1.263683349576    -4.468996182161     0.189324968936
C                     4.266803253327    -8.688390872525    -2.000905945608
N                     0.102053502569    -4.484898682314    -0.336090828953
N                     3.703690611942    -7.370288653138    -1.760802798445
O                     3.943814301765    -4.645218421729    -1.817047181463
O                     1.708267995299    -8.185927442926    -1.014878565821
H                     2.725364178765     0.015034363772    -1.280672081206
H                     0.399274651409     0.089103768917    -0.383316995115
H                     3.794911624171    -2.210532766481    -1.724968626980
H                    -0.834378309512    -1.980329260195     0.061698665446
H                     0.143035774528    -6.571367709165    -0.384036374490
H                    -1.937341660614    -3.950664447840    -0.499509599451
H                    -1.297227040985    -3.975300404010     1.165088369335
H                    -1.606424353828    -5.496221029110     0.305977285391
H                     4.260975260661    -9.287511668257    -1.084794305579
H                     5.295672428498    -8.570469313947    -2.346996593978
H                     3.692113611601    -9.230550699919    -2.759455309291
H                     4.226550722034    -6.515664632100    -1.952220245199
