
  -OEChem-05262117483D

 31 33  0     1  0  0  0  0  0999 V2000
    2.1065    0.1553    0.1245 C   0  0  0  0  0  0  0  0  0  0  0  0
    0.8246    0.7179    0.0320 C   0  0  0  0  0  0  0  0  0  0  0  0
    8.5290    4.1829   -0.0972 C   0  0  0  0  0  0  0  0  0  0  0  0
    9.0271    4.1102    1.2086 C   0  0  0  0  0  0  0  0  0  0  0  0
    3.2204    0.9648   -0.0879 C   0  0  0  0  0  0  0  0  0  0  0  0
    0.6693    2.0701   -0.2592 C   0  0  0  0  0  0  0  0  0  0  0  0
    7.1740    3.9707   -0.3324 C   0  0  0  0  0  0  0  0  0  0  0  0
    8.1172    3.8170    2.2274 C   0  0  0  0  0  0  0  0  0  0  0  0
    3.0890    2.3300   -0.3851 C   0  0  0  0  0  0  0  0  0  0  0  0
    1.7980    2.8800   -0.4609 C   0  0  0  0  0  0  0  0  0  0  0  0
    6.3381    3.6796    0.7707 C   0  0  0  0  0  0  0  0  0  0  0  0
    3.9101    4.4767   -1.3575 C   0  0  0  0  0  0  0  0  0  0  0  0
    2.6925    5.0764   -0.6729 C   0  0  0  0  0  0  0  0  0  0  0  0
    4.3173    3.1832   -0.6309 C   0  0  1  0  0  0  0  0  0  0  0  0
    6.8121    3.6028    2.0305 N   0  0  0  0  0  0  0  0  0  0  0  0
    4.9792    3.4694    0.6440 N   0  0  0  0  0  0  0  0  0  0  0  0
    1.5575    4.1965   -0.7508 O   0  0  0  0  0  0  0  0  0  0  0  0
    2.2303   -0.8994    0.3527 H   0  0  0  0  0  0  0  0  0  0  0  0
   -0.0554    0.0998    0.1905 H   0  0  0  0  0  0  0  0  0  0  0  0
    9.1915    4.4062   -0.9301 H   0  0  0  0  0  0  0  0  0  0  0  0
   10.0769    4.2723    1.4313 H   0  0  0  0  0  0  0  0  0  0  0  0
    4.2208    0.5399   -0.0296 H   0  0  0  0  0  0  0  0  0  0  0  0
   -0.3142    2.5256   -0.3305 H   0  0  0  0  0  0  0  0  0  0  0  0
    6.7760    4.0324   -1.3390 H   0  0  0  0  0  0  0  0  0  0  0  0
    8.4542    3.7453    3.2612 H   0  0  0  0  0  0  0  0  0  0  0  0
    3.6726    4.2554   -2.4046 H   0  0  0  0  0  0  0  0  0  0  0  0
    4.7299    5.2002   -1.3392 H   0  0  0  0  0  0  0  0  0  0  0  0
    2.9152    5.2782    0.3828 H   0  0  0  0  0  0  0  0  0  0  0  0
    2.3687    6.0037   -1.1488 H   0  0  0  0  0  0  0  0  0  0  0  0
    5.0064    2.6135   -1.2683 H   0  0  0  0  0  0  0  0  0  0  0  0
    4.5583    3.0770    1.4778 H   0  0  0  0  0  0  0  0  0  0  0  0
  1  2  1  0  0  0  0
  1  5  2  0  0  0  0
  1 18  1  0  0  0  0
  2  6  2  0  0  0  0
  2 19  1  0  0  0  0
  3  4  1  0  0  0  0
  3  7  2  0  0  0  0
  3 20  1  0  0  0  0
  4  8  2  0  0  0  0
  4 21  1  0  0  0  0
  5  9  1  0  0  0  0
  5 22  1  0  0  0  0
  6 10  1  0  0  0  0
  6 23  1  0  0  0  0
  7 11  1  0  0  0  0
  7 24  1  0  0  0  0
  8 15  1  0  0  0  0
  8 25  1  0  0  0  0
  9 10  2  0  0  0  0
  9 14  1  0  0  0  0
 10 17  1  0  0  0  0
 11 15  2  0  0  0  0
 11 16  1  0  0  0  0
 12 13  1  0  0  0  0
 12 14  1  0  0  0  0
 12 26  1  0  0  0  0
 12 27  1  0  0  0  0
 13 17  1  0  0  0  0
 13 28  1  0  0  0  0
 13 29  1  0  0  0  0
 14 16  1  0  0  0  0
 14 30  1  0  0  0  0
 16 31  1  0  0  0  0
M  END
$$$$
