31
0 1 C14H14N2O
C                     1.573585611132    -1.074830755969     0.196747287870
C                     0.214387103264    -1.068122963856     0.535116028919
C                     6.839160635972    -3.219811827773     1.307981615273
C                     7.498800116640    -3.375207610285     0.082289389931
C                     2.346245125296    -2.200552129739     0.481991886406
C                    -0.355870589362    -2.178060828260     1.153920883362
C                     5.538406417207    -3.687607747028     1.457575927481
C                     6.794525347894    -3.999820888420    -0.948307331871
C                     1.797238453894    -3.329036782235     1.108691244607
C                     0.429986038217    -3.302069715784     1.443132342439
C                     4.918443876489    -4.317470949936     0.353659798103
C                     1.717045335982    -5.777322355299     1.593522902304
C                     0.594066968158    -5.410500237183     2.551234268845
C                     2.640362840298    -4.568974638009     1.406768739759
N                     5.542776553117    -4.458089347714    -0.832462010662
N                     3.648430556745    -4.862775629867     0.401522739077
O                    -0.227151519057    -4.354944597068     2.033189189819
H                     2.024713136182    -0.214243754450    -0.289004063945
H                    -0.401621287749    -0.199820950196     0.315876756932
H                     7.333443186982    -2.730547120287     2.143842753414
H                     8.512706594509    -3.020188874521    -0.072211919051
H                     3.395568190309    -2.210453728573     0.204316046012
H                    -1.408401897050    -2.200189696268     1.421554321449
H                     5.016744327278    -3.557722126729     2.399180700802
H                     7.256084067038    -4.137861436458    -1.925549729656
H                     2.286299851495    -6.627117544330     1.982059876053
H                     1.287176309430    -6.073287629031     0.629027510382
H                    -0.084645360957    -6.249211846579     2.718941290371
H                     1.002663695270    -5.096686408813     3.522622342106
H                     3.165415537953    -4.418023129133     2.354866591539
H                     3.298771608235    -5.091675254089    -0.523450888821
