28
0 1 C10H15N3
C                     2.183535404635    -0.740488519023     3.856676071637
C                     2.145763052843    -2.133889771473     3.705813866707
C                     1.485005267269     0.072558662418     2.980933260176
C                     0.807812063047    -0.617160695557     1.921172555690
C                    -0.558837360490     1.488547658893    -0.828526525038
C                    -1.515359353624     0.289465734019    -0.745206758286
C                     0.261867486158     1.394970749722     0.472867384306
C                    -0.656021178571    -0.795383680075    -0.081556331324
C                     1.405171894608     1.556382356352     3.261039034695
C                     0.238373690204    -1.533167330953    -1.089194228873
N                     1.420706971149    -2.722834679948     2.758867007110
N                     0.770571481435    -1.972310749049     1.874418944778
N                     0.102135085820    -0.001446405362     0.912787698049
H                     2.729497126866    -0.300314597102     4.687963562897
H                     2.678936657434    -2.799687409052     4.379537943889
H                     0.094869583261     1.392872101698    -1.699854702078
H                    -1.077061206161     2.447451118812    -0.910319239823
H                    -2.371425393145     0.529499791806    -0.105099637098
H                    -1.895227854318    -0.021311453262    -1.722034741522
H                     1.315627844960     1.643932841986     0.301776068139
H                    -0.131357436750     2.090149824776     1.218829770606
H                    -1.259612511005    -1.530379339651     0.454807756755
H                     1.856151858593     2.169117500562     2.477096208249
H                     0.366277912273     1.879323443835     3.379827787719
H                     1.927077173216     1.779709681044     4.195406981569
H                     0.862761983356    -0.835625474362    -1.658179170932
H                    -0.384949326889    -2.087527624694    -1.799919853029
H                     0.885569314757    -2.242413470880    -0.572371422202
