
  -OEChem-05262117483D

 26 26  0     1  0  0  0  0  0999 V2000
    1.7583   -1.1082   -0.1521 C   0  0  0  0  0  0  0  0  0  0  0  0
    2.2947   -0.0303    0.5613 C   0  0  0  0  0  0  0  0  0  0  0  0
    1.2516   -2.2118    0.5416 C   0  0  0  0  0  0  0  0  0  0  0  0
    2.3200   -0.0589    1.9580 C   0  0  0  0  0  0  0  0  0  0  0  0
    1.2729   -2.2382    1.9401 C   0  0  0  0  0  0  0  0  0  0  0  0
    1.8075   -1.1609    2.6575 C   0  0  0  0  0  0  0  0  0  0  0  0
    1.2910    0.6100    6.8673 C   0  0  0  0  0  0  0  0  0  0  0  0
    0.9950    0.6489    8.3571 C   0  0  0  0  0  0  0  0  0  0  0  0
    0.6074   -0.2712    4.6613 C   0  0  0  0  0  0  0  0  0  0  0  0
    1.7862   -1.1340    4.1685 C   0  0  1  0  0  0  0  0  0  0  0  0
    0.5204   -0.2496    6.1218 N   0  0  0  0  0  0  0  0  0  0  0  0
    2.1727    1.2983    6.3572 O   0  0  0  0  0  0  0  0  0  0  0  0
    1.6617   -2.4677    4.6694 O   0  0  0  0  0  0  0  0  0  0  0  0
    1.7425   -1.0904   -1.2389 H   0  0  0  0  0  0  0  0  0  0  0  0
    2.6990    0.8280    0.0306 H   0  0  0  0  0  0  0  0  0  0  0  0
    0.8420   -3.0563   -0.0073 H   0  0  0  0  0  0  0  0  0  0  0  0
    2.7484    0.7764    2.5087 H   0  0  0  0  0  0  0  0  0  0  0  0
    0.8929   -3.0980    2.4820 H   0  0  0  0  0  0  0  0  0  0  0  0
    1.9254    0.4814    8.9051 H   0  0  0  0  0  0  0  0  0  0  0  0
    0.6380    1.6497    8.6162 H   0  0  0  0  0  0  0  0  0  0  0  0
    0.2520   -0.0871    8.6779 H   0  0  0  0  0  0  0  0  0  0  0  0
   -0.3239   -0.6878    4.2684 H   0  0  0  0  0  0  0  0  0  0  0  0
    0.7223    0.7512    4.2923 H   0  0  0  0  0  0  0  0  0  0  0  0
    2.7144   -0.6802    4.5375 H   0  0  0  0  0  0  0  0  0  0  0  0
   -0.2745   -0.6904    6.5635 H   0  0  0  0  0  0  0  0  0  0  0  0
    1.6582   -2.3983    5.6379 H   0  0  0  0  0  0  0  0  0  0  0  0
  1  2  1  0  0  0  0
  1  3  2  0  0  0  0
  1 14  1  0  0  0  0
  2  4  2  0  0  0  0
  2 15  1  0  0  0  0
  3  5  1  0  0  0  0
  3 16  1  0  0  0  0
  4  6  1  0  0  0  0
  4 17  1  0  0  0  0
  5  6  2  0  0  0  0
  5 18  1  0  0  0  0
  6 10  1  0  0  0  0
  7  8  1  0  0  0  0
  7 11  1  0  0  0  0
  7 12  2  0  0  0  0
  8 19  1  0  0  0  0
  8 20  1  0  0  0  0
  8 21  1  0  0  0  0
  9 10  1  0  0  0  0
  9 11  1  0  0  0  0
  9 22  1  0  0  0  0
  9 23  1  0  0  0  0
 10 13  1  0  0  0  0
 10 24  1  0  0  0  0
 11 25  1  0  0  0  0
 13 26  1  0  0  0  0
M  END
$$$$
