21   
torsion grid (-165,)
C       -2.2010549922   -2.1004959927    3.6729507024
C       -0.6088281936   -1.6355222510    2.1846925156
C       -0.9105261519   -2.4755162803    3.2451771845
C       -0.8523521105    0.2013805318   -0.0507381729
C       -1.6402388808    1.6169604823    1.8883473248
C       -3.2938127715    0.2699490285    0.5300117213
C       -1.8659362149    0.3193868066    1.0943513795
N       -2.6651065549   -1.0946850990    2.9273217092
N       -1.6921051194   -0.8261218110    2.0237109780
Br       0.1920461289   -3.8471891242    3.9477807037
H       -2.7995084016   -2.5174297749    4.4725844299
H        0.2718495289   -1.5818465498    1.5642640110
H       -0.9516875973   -0.7539362396   -0.5749414468
H       -1.0368096723    1.0036098156   -0.7700852407
H        0.1792087705    0.3079844450    0.2987440327
H       -2.3559951535    1.6858881082    2.7113845189
H       -0.6286281466    1.6446914333    2.3056109660
H       -1.7703084130    2.4870559728    1.2370431281
H       -4.0313581446    0.3302611407    1.3313059643
H       -3.4428647423    1.1108534098   -0.1540705028
H       -3.4600361263   -0.6610806880   -0.0204441414
21   
torsion grid (-150,)
C       -2.2471724868   -2.2544043562    3.5471996672
C       -0.5391415444   -1.5093389139    2.3261941600
C       -0.8660671127   -2.4228591545    3.3152321197
C       -0.9097404079    0.1374406724   -0.0940826186
C       -1.5477685487    1.5818208806    1.8849611453
C       -3.3145744043    0.3204587431    0.5960200415
C       -1.8645599710    0.2982553532    1.0982293642
N       -2.7398656166   -1.2984065522    2.7558287788
N       -1.6953177784   -0.8609153714    2.0123101806
Br       0.3105955722   -3.6483818575    4.1544032717
H       -2.8894860167   -2.7842147955    4.2386341311
H        0.4061629399   -1.3030775035    1.8485589768
H       -1.0752655395   -0.8167083259   -0.6027926134
H       -1.0896919591    0.9448033713   -0.8092470977
H        0.1411277437    0.1972925412    0.2044676571
H       -2.2210652514    1.6769417599    2.7413724454
H       -0.5178366843    1.5688491239    2.2552923825
H       -1.6725462092    2.4605024907    1.2442722133
H       -4.0186306956    0.4316311084    1.4211819206
H       -3.4373792165    1.1626289048   -0.0915467619
H       -3.5577804153   -0.6037105054    0.0642168291
21   
torsion grid (-135,)
C       -2.2851585853   -2.3760025976    3.3902209126
C       -0.5346938332   -1.3728359557    2.4457489591
C       -0.8750323575   -2.3675693357    3.3476899993
C       -0.9769237766    0.0882216829   -0.1518045237
C       -1.4696391582    1.5844260535    1.8323296592
C       -3.3407510561    0.3908563906    0.6386234774
C       -1.8743237812    0.3060440081    1.0774075913
N       -2.7820249266   -1.4466519448    2.5698608320
N       -1.7096866160   -0.8508435566    1.9958787520
Br       0.3213592901   -3.4812931884    4.3062455859
H       -2.9437023618   -3.0101607109    3.9694207049
H        0.4327213740   -1.0298177849    2.1111937971
H       -1.2259508053   -0.8532224552   -0.6498498178
H       -1.1245005141    0.9066349618   -0.8624405574
H        0.0847266618    0.0695166878    0.1118480896
H       -2.0973144027    1.7181846506    2.7180715673
H       -0.4249579750    1.5400318789    2.1553603489
H       -1.5897902401    2.4591970085    1.1856103585
H       -4.0041018232    0.5482443379    1.4901586124
H       -3.4475247480    1.2311250927   -0.0539591129
H       -3.6551572605   -0.5245862205    0.1314415778
21   
torsion grid (-120,)
C       -2.2962836547   -2.5132957227    3.2042743728
C       -0.5684085324   -1.2727498760    2.5435376878
C       -0.8999096145   -2.3604086429    3.3347110404
C       -1.0579063078    0.0454285488   -0.1969828905
C       -1.4162400106    1.5877174408    1.7803154392
C       -3.3768061137    0.4511300088    0.6883119836
C       -1.8976003843    0.3140234635    1.0638063869
N       -2.7931562013   -1.5825345464    2.3852215210
N       -1.7342174975   -0.8366619968    1.9906340493
Br       0.2907710728   -3.4103758783    4.3692822808
H       -2.9452410655   -3.2479836289    3.6628976523
H        0.3877265649   -0.8091921209    2.3513815817
H       -1.3785030398   -0.8820214426   -0.6802220970
H       -1.1792742137    0.8682763425   -0.9079700729
H        0.0073882907   -0.0404966817    0.0377724379
H       -1.9934606448    1.7540850783    2.6944283924
H       -0.3577439673    1.5235482028    2.0499505136
H       -1.5438467299    2.4549900173    1.1254198894
H       -3.9973292627    0.6253068206    1.5694584589
H       -3.4827413470    1.3014770319    0.0079725843
H       -3.7464694987   -0.4470835046    0.1897679800
21   
torsion grid (-105,)
C       -2.2760160748   -2.6277507847    3.0178777693
C       -0.6189032809   -1.1821570646    2.6623832610
C       -0.9306842785   -2.3501075541    3.3388109940
C       -1.1111994035    0.0020947335   -0.2276765096
C       -1.3446060284    1.5900839188    1.7290799459
C       -3.3849716094    0.5153294366    0.7325238789
C       -1.8987723738    0.3241808027    1.0546392344
N       -2.7615419923   -1.6939585754    2.1957108999
N       -1.7482743590   -0.8185313308    1.9932163323
Br       0.2231420555   -3.3460876439    4.4644908332
H       -2.8978503006   -3.4495913155    3.3482996730
H        0.3002377258   -0.6172042258    2.6249152465
H       -1.4887722222   -0.9165180102   -0.6860229223
H       -1.2141199641    0.8185132199   -0.9493043129
H       -0.0461794815   -0.1329297511   -0.0150825975
H       -1.8681274657    1.7883239080    2.6688209313
H       -0.2744320446    1.5084014759    1.9405865453
H       -1.4841196393    2.4488560548    1.0660533134
H       -3.9646432371    0.7054526052    1.6390345851
H       -3.4873337560    1.3744498889    0.0627688759
H       -3.8043988410   -0.3652514536    0.2438924948
21   
torsion grid (-90,)
C       -2.1217018909   -2.7840193684    2.8744086092
C       -0.6207075107   -1.1390581204    2.8064321958
C       -0.8721572800   -2.3731563940    3.3838194796
C       -1.1577941214   -0.0771961608   -0.2445374097
C       -1.2295455046    1.5283316391    1.7035569970
C       -3.3603126738    0.5106688917    0.8478345917
C       -1.8619980862    0.2760633709    1.0773934585
N       -2.6088550901   -1.8649644639    2.0371458562
N       -1.6931191268   -0.8668988977    2.0117489017
Br       0.2382711377   -3.2917802408    4.6141710331
H       -2.6767861538   -3.6890036442    3.0847455483
H        0.2185546667   -0.4706600816    2.9211309898
H       -1.5971100996   -0.9792448791   -0.6796703344
H       -1.2636218093    0.7425312732   -0.9622011197
H       -0.0905390215   -0.2571828954   -0.0818554027
H       -1.6594679642    1.7350172119    2.6880483576
H       -0.1444030137    1.4365541584    1.8077046510
H       -1.4214185352    2.3887439362    1.0565749659
H       -3.8699024804    0.7315170214    1.7899428493
H       -3.4849579308    1.3636470495    0.1740689293
H       -3.8352113333   -0.3642498592    0.4029653553
21   
torsion grid (-75,)
C       -2.0241856566   -2.8565082314    2.7056278601
C       -0.7410545340   -1.0497510800    2.9421946576
C       -0.9400031288   -2.3290360014    3.4373007161
C       -1.2416192002   -0.0859442224   -0.3012359125
C       -1.1542068721    1.5133005800    1.6450466416
C       -3.3644123473    0.5640869940    0.9157345818
C       -1.8613663294    0.2852866004    1.0569666940
N       -2.4646759225   -1.9631869105    1.8163005852
N       -1.6817475597   -0.8689312599    1.9742441910
Br       0.0438578527   -3.1689715974    4.8219848584
H       -2.4944298380   -3.8274018613    2.7929383337
H       -0.0212258263   -0.2965183925    3.2212126617
H       -1.7326818558   -0.9716055991   -0.7124785482
H       -1.3589114394    0.7400958141   -1.0098396791
H       -0.1738572035   -0.3007646019   -0.1929810232
H       -1.5235539021    1.7451894589    2.6486892582
H       -0.0687661320    1.3819326784    1.6887818897
H       -1.3521749634    2.3760847195    1.0035685470
H       -3.8041944740    0.8137534181    1.8861525323
H       -3.5141478038    1.4092200145    0.2370532975
H       -3.8860754799   -0.3070282645    0.5172560116
21   
torsion grid (-60,)
C       -1.8450913389   -2.9341232789    2.5790326955
C       -0.8525971683   -1.0001658098    3.0714697889
C       -0.9894074797   -2.3085308199    3.5092391525
C       -1.3225660915   -0.0930219953   -0.3512933731
C       -1.0416415665    1.4736477945    1.5996565441
C       -3.3278349129    0.5809360554    1.0368840214
C       -1.8221180335    0.2721733779    1.0557887281
N       -2.2131965345   -2.0699016632    1.6300580152
N       -1.6039881768   -0.9004140240    1.9405334165
Br      -0.1843865180   -3.0749012934    5.0440292556
H       -2.1998410053   -3.9565344865    2.5634984184
H       -0.2879164289   -0.1803071240    3.4862467521
H       -1.8592917008   -0.9641200198   -0.7323539690
H       -1.4831973965    0.7474340968   -1.0336633065
H       -0.2533178555   -0.3263617087   -0.3325577043
H       -1.3780822695    1.7572500336    2.6017390738
H        0.0352025286    1.2801744863    1.6274121574
H       -1.2079855592    2.3287140149    0.9392673581
H       -3.6834244776    0.8286659387    2.0419943519
H       -3.5255705416    1.4323832043    0.3782883683
H       -3.8894844022   -0.2825983726    0.6750503528
21   
torsion grid (-45,)
C       -1.6584930962   -3.0009825211    2.5462186624
C       -1.0293391811   -0.9724741473    3.2210278586
C       -1.0893203057   -2.2963654048    3.6272095709
C       -1.4070343140   -0.1306079316   -0.3491672255
C       -0.9584078805    1.4224200428    1.5796637993
C       -3.2977028838    0.5673409108    1.1724943267
C       -1.7972348760    0.2358888237    1.0901243420
N       -1.9330513148   -2.1677431755    1.5395889024
N       -1.5407445058   -0.9409046397    1.9592970346
Br      -0.5072991706   -2.9944004487    5.2899733853
H       -1.8691910543   -4.0591222219    2.4606361079
H       -0.6600564272   -0.0995510957    3.7358533350
H       -1.9848529699   -0.9854175674   -0.7026387517
H       -1.5983895116    0.7238491950   -1.0053449231
H       -0.3444769431   -0.3854988885   -0.4097135396
H       -1.2648127988    1.7608101061    2.5741492126
H        0.1076646076    1.1764342985    1.6020625630
H       -1.0982955992    2.2612375474    0.8927183144
H       -3.5848872625    0.8101922006    2.2004716308
H       -3.5317463596    1.4261865750    0.5354480388
H       -3.8924602593   -0.2871171361    0.8399738098
21   
torsion grid (-30,)
C       -1.4478578177   -3.0153222153    2.4517975795
C       -1.2002506293   -0.9494656531    3.2481348065
C       -1.1562515534   -2.2829980323    3.6215204913
C       -1.4985229999   -0.1240116152   -0.3978660089
C       -0.8727285037    1.4046535074    1.4982116043
C       -3.2628442122    0.6192875892    1.2429962386
C       -1.7804834332    0.2445971101    1.0644507277
N       -1.6607570167   -2.1887274113    1.4249288610
N       -1.4979479369   -0.9378483007    1.9188969296
Br      -0.7642292453   -2.9603399594    5.3472630479
H       -1.5033141028   -4.0878620596    2.3179044378
H       -1.0361998622   -0.0543634077    3.8279346186
H       -2.1340494182   -0.9459246508   -0.7284376558
H       -1.6928003964    0.7505437755   -1.0259204055
H       -0.4558253338   -0.4259145988   -0.5314594563
H       -1.1038525832    1.7559288351    2.5081385242
H        0.1811808023    1.1136020679    1.4613802664
H       -1.0205780235    2.2490277239    0.8193635315
H       -3.4794619912    0.8712448662    2.2859231151
H       -3.5139083509    1.4840466899    0.6205907862
H       -3.9031398811   -0.2175624086    0.9504768692
21   
torsion grid (-15,)
C       -1.2833343103   -3.0221286175    2.5140647618
C       -1.4168815779   -0.9572859981    3.3391312891
C       -1.2609730391   -2.2815195929    3.7144977080
C       -1.5625373400   -0.1906383500   -0.3550450642
C       -0.8064184460    1.3417312459    1.4878939129
C       -3.2388754579    0.6583065655    1.3223693716
C       -1.7805679226    0.2153298260    1.1068992481
N       -1.4448543850   -2.2089336951    1.4670839332
N       -1.5171962094   -0.9579048895    1.9806311364
Br      -1.0524765834   -2.9384867234    5.4795373563
H       -1.1863661272   -4.0907549348    2.3729926103
H       -1.4577238618   -0.0588581671    3.9362766054
H       -2.2481263790   -0.9841858471   -0.6554266434
H       -1.7351008981    0.6851183764   -0.9878155858
H       -0.5426218668   -0.5469318874   -0.5189736367
H       -0.9579714726    1.6866191497    2.5149137195
H        0.2301501633    1.0078289383    1.3852013543
H       -0.9620285578    2.1992383927    0.8268049529
H       -3.4135798930    0.9556960270    2.3610397688
H       -3.4733887474    1.5121753929    0.6791163093
H       -3.9244306489   -0.1586428629    1.0794754147
21   
torsion grid (0,)
C       -1.0716827805   -2.9885432975    2.5355527838
C       -1.5737800519   -0.9797408533    3.3563798314
C       -1.2787843679   -2.2785497163    3.7369183934
C       -1.6296533118   -0.2218283081   -0.3480767923
C       -0.7452995372    1.2955139266    1.4529124147
C       -3.2091315588    0.7133943205    1.3720535854
C       -1.7788835476    0.2073291285    1.1153621490
N       -1.2275714038   -2.1811496268    1.4830823978
N       -1.5312143539   -0.9650296286    1.9950833764
Br      -1.1799800391   -2.9424429940    5.5089085070
H       -0.8204603573   -4.0321483400    2.3977034245
H       -1.7994026257   -0.1072081480    3.9511993353
H       -2.3406283858   -1.0087239764   -0.6070963733
H       -1.8185650617    0.6483736829   -0.9838380940
H       -0.6248872562   -0.5964904658   -0.5532100415
H       -0.8352890274    1.6298732374    2.4908884008
H        0.2705213352    0.9194784233    1.3006356469
H       -0.8949400194    2.1653964435    0.8061625679
H       -3.3396897855    1.0484321419    2.4055232844
H       -3.4288301981    1.5599462428    0.7145378846
H       -3.9366906488   -0.0790043123    1.1740229837
21   
torsion grid (15,)
C       -0.8945649902   -2.9308497608    2.5246303365
C       -1.7435796444   -1.0331714120    3.3247288062
C       -1.3203700541   -2.2947090771    3.7095948409
C       -1.7061410882   -0.2236792651   -0.3631161725
C       -0.6959000907    1.2523521133    1.4102842197
C       -3.1847294703    0.7864246473    1.4004133833
C       -1.7896428728    0.2134518453    1.1036981448
N       -1.0415062427   -2.1145760037    1.4779667497
N       -1.5650958566   -0.9690604608    1.9757549266
Br      -1.3306280601   -3.0024764691    5.4672628689
H       -0.4989176711   -3.9296958549    2.3941179443
H       -2.1451477427   -0.2191347749    3.9091267408
H       -2.4497193464   -0.9915036208   -0.5903219407
H       -1.8962122538    0.6481286795   -0.9963205219
H       -0.7217477284   -0.6274007590   -0.6037773004
H       -0.7414276097    1.5801160595    2.4534965470
H        0.2949310274    0.8266965073    1.2273762098
H       -0.8202218057    2.1317863255    0.7707640260
H       -3.2719778013    1.1434201692    2.4307613152
H       -3.3790580931    1.6367830061    0.7403262092
H       -3.9573812115    0.0310924611    1.2301139705
21   
torsion grid (30,)
C       -0.6804230512   -2.8486513967    2.6573741211
C       -1.8699668055   -1.1025284110    3.3639867215
C       -1.3316404872   -2.3075848323    3.7855236449
C       -1.7777588694   -0.2877788388   -0.2954036551
C       -0.6247075355    1.1947950574    1.3870740921
C       -3.1231899736    0.8257430406    1.5136035023
C       -1.7698799568    0.1909735946    1.1621474202
N       -0.8056482730   -2.0305041990    1.6095286634
N       -1.5380232492   -0.9788343918    2.0486275591
Br      -1.4704505042   -3.0620127737    5.5182152139
H       -0.1431628512   -3.7837714622    2.5665852703
H       -2.4482897837   -0.3677103466    3.9023760701
H       -2.5658944147   -1.0279996647   -0.4600906934
H       -1.9623691508    0.5709143963   -0.9477941477
H       -0.8246432145   -0.7415666186   -0.5681099709
H       -0.6008940089    1.5339488847    2.4275119061
H        0.3375103019    0.7304450254    1.1538730126
H       -0.7543556299    2.0699890328    0.7425230435
H       -3.1294361491    1.2576547111    2.5186730490
H       -3.3322294903    1.6369132200    0.8107695997
H       -3.9314062459    0.0918683857    1.4428847291
21   
torsion grid (45,)
C       -0.5174568677   -2.7325078389    2.7042840041
C       -2.0300229688   -1.2010780906    3.2813173158
C       -1.4042649565   -2.3524869372    3.7329493348
C       -1.8636615344   -0.3027939848   -0.2913941278
C       -0.5815075178    1.1823386460    1.2985530186
C       -3.0747692516    0.8932937775    1.5621898904
C       -1.7648098969    0.2093985881    1.1529042164
N       -0.5892228220   -1.8721286285    1.6856483985
N       -1.5150411526   -0.9510439577    2.0457002351
Br      -1.7050661899   -3.2258302762    5.3875148300
H        0.1512844318   -3.5825073128    2.6634586330
H       -2.7816732515   -0.5848247720    3.7489397556
H       -2.6931058911   -1.0089749337   -0.3962649082
H       -2.0380953750    0.5421184765   -0.9644288627
H       -0.9439628344   -0.8083684127   -0.5881387756
H       -0.4946283439    1.5346722891    2.3312635545
H        0.3522920185    0.6859462025    1.0228247436
H       -0.7222295109    2.0506644918    0.6470683024
H       -3.0117878319    1.3407001562    2.5588195624
H       -3.2878412378    1.6999709456    0.8558287447
H       -3.9152833596    0.1928659757    1.5408370060
21   
torsion grid (60,)
C       -0.5335117015   -1.8886691448    3.7604962573
C       -1.9361014619   -2.2089607257    2.0582247680
C       -1.3548855219   -2.8525617542    3.1399553390
C       -0.4159326859    0.6263303497    0.5058827546
C       -2.3527977998    1.3385411651    1.9702431852
C       -2.7273213651   -0.2723518665    0.0715291090
C       -1.7420098124    0.1909551489    1.1499227459
N       -0.6022174516   -0.7269134097    3.1058787104
N       -1.4566077242   -0.9348442615    2.0753515864
Br      -1.6249370575   -4.6549847354    3.6589032691
H        0.0910104201   -1.9925187269    4.6383324179
H       -2.6286203841   -2.5753932443    1.3171372535
H        0.0241770289   -0.1971324072   -0.0653488858
H       -0.5896316463    1.4668467617   -0.1731981775
H        0.2974995804    0.9343109685    1.2728600548
H       -3.2909078749    1.0222010144    2.4370833631
H       -1.6643524735    1.6529408055    2.7571700795
H       -2.5593773604    2.1935248249    1.3189857904
H       -3.6828825958   -0.5874666050    0.5020978139
H       -2.9271582546    0.5633973573   -0.6041301321
H       -2.3190073318   -1.0926847642   -0.5269173803
21   
torsion grid (75,)
C       -0.7201903044   -1.8212816227    3.8809976159
C       -1.7854061168   -2.2198181863    1.9645753627
C       -1.2797726485   -2.8477057365    3.0921249938
C       -0.4322734952    0.5413896983    0.4655369211
C       -2.2706322442    1.4349228184    1.9595327333
C       -2.8155886024   -0.2115700094    0.1402120734
C       -1.7625605921    0.2211126892    1.1686490388
N       -0.8684657623   -0.6381514792    3.2800204916
N       -1.5217488108   -0.8929367179    2.1208941514
Br      -1.3508720891   -4.7013241380    3.4792991716
H       -0.2310871106   -1.8944918691    4.8437018732
H       -2.2993116395   -2.6280772687    1.1086627870
H       -0.0648848279   -0.3317934401   -0.0827112820
H       -0.5668552434    1.3644343777   -0.2434765871
H        0.3237123116    0.8322971641    1.1993659573
H       -3.2095448331    1.1986957875    2.4695400389
H       -1.5415412008    1.7434288625    2.7098670877
H       -2.4470652063    2.2676311117    1.2719619215
H       -3.7451322638   -0.5232063581    0.6263323945
H       -3.0420245665    0.6361866832   -0.5117907369
H       -2.4586928567   -1.0264951832   -0.4968788115
21   
torsion grid (90,)
C       -0.9096081812   -1.8378199788    3.9659826392
C       -1.6002391548   -2.2457594053    1.8875067666
C       -1.1949983210   -2.8749310729    3.0534996148
C       -0.4534077977    0.4505129598    0.4248473896
C       -2.1870422111    1.4573394528    1.9643644605
C       -2.8858153967   -0.1924374464    0.2042466668
C       -1.7701051437    0.2052191626    1.1827176065
N       -1.1234524607   -0.6472645284    3.4004243565
N       -1.5516621339   -0.9083843850    2.1419311235
Br      -1.0740793476   -4.7433223754    3.3453709829
H       -0.5714409802   -1.9092646753    4.9916009862
H       -1.9132006315   -2.6595010543    0.9413920761
H       -0.1468213936   -0.4452881346   -0.1241705285
H       -0.5742599611    1.2693042641   -0.2915142364
H        0.3440027277    0.7156489052    1.1247590552
H       -3.1059982856    1.2770906795    2.5292108860
H       -1.4115658865    1.7623862191    2.6675794103
H       -2.3653147658    2.2723483873    1.2565142541
H       -3.8014877097   -0.4593055333    0.7400702542
H       -3.1055171434    0.6538206021   -0.4524774120
H       -2.5967676009   -1.0321164166   -0.4346461702
21   
torsion grid (105,)
C       -1.1553475616   -1.7697485661    4.0267041249
C       -1.4742619461   -2.1684400428    1.8586222153
C       -1.1976859693   -2.7975568575    3.0613610355
C       -0.5070913027    0.4355786554    0.3499522509
C       -2.1205536794    1.5510199163    1.9339630131
C       -2.9766726912   -0.1086731297    0.2535138977
C       -1.7984231197    0.2623913521    1.1690280019
N       -1.3892401716   -0.5845643900    3.4572445946
N       -1.5880616275   -0.8410166152    2.1424394009
Br      -0.9426651290   -4.6555483334    3.3323034442
H       -0.9727636995   -1.8441646896    5.0908434227
H       -1.5923823385   -2.5744822426    0.8653534197
H       -0.2650852947   -0.4757264775   -0.2056445679
H       -0.6223782202    1.2528188742   -0.3688708695
H        0.3337522336    0.6688288203    1.0095256060
H       -3.0130761459    1.4308644258    2.5527660954
H       -1.2967792674    1.8452393392    2.5858041120
H       -2.3005359757    2.3497291841    1.2081578407
H       -3.8816354287   -0.2875422970    0.8413359236
H       -3.1715734970    0.7120262621   -0.4429020933
H       -2.7692635351   -1.0027608397   -0.3417450976
21   
torsion grid (120,)
C       -1.3671646043   -1.7670924152    4.0502140468
C       -1.3171543858   -2.1186391598    1.8514272125
C       -1.1775401326   -2.7633454337    3.0695099086
C       -0.5456316699    0.4160795045    0.2811337020
C       -2.0513656195    1.5903396253    1.9178441596
C       -3.0303006193   -0.0771364061    0.3087203905
C       -1.8005732524    0.2818986695    1.1609120752
N       -1.6063317319   -0.5854818583    3.4751847615
N       -1.5722092915   -0.8124212289    2.1407677964
Br      -0.8086659124   -4.6022474054    3.3395040647
H       -1.3389425405   -1.8605165260    5.1280434920
H       -1.2496490002   -2.4993486339    0.8432059866
H       -0.3504735770   -0.4987059469   -0.2866981998
H       -0.6776871487    1.2331973577   -0.4345339882
H        0.3323897127    0.6313930160    0.8969070332
H       -2.9283640138    1.5155866759    2.5636654118
H       -1.1970621452    1.8599159333    2.5419296501
H       -2.2187052298    2.3859044245    1.1855586908
H       -3.9118375911   -0.2049346853    0.9435636498
H       -3.2322884463    0.7224491842   -0.4104642553
H       -2.8753482848   -1.0029950702   -0.2534250876
21   
torsion grid (135,)
C       -1.5610214416   -1.8484747837    4.0295475301
C       -1.1501906402   -2.1025299141    1.8550911001
C       -1.1442823883   -2.7851010479    3.0604503921
C       -0.5840204548    0.3665608682    0.2269112744
C       -1.9714588642    1.5810253859    1.9314923366
C       -3.0747680996   -0.0695635958    0.3794730964
C       -1.7957792717    0.2634625838    1.1675060844
N       -1.8097803924   -0.6664158618    3.4600227523
N       -1.5496761394   -0.8320818690    2.1413621666
Br      -0.6629318848   -4.5978568828    3.3301712119
H       -1.6831887485   -1.9834090188    5.0963755934
H       -0.9018504482   -2.4356649653    0.8587054655
H       -0.4468017125   -0.5407592532   -0.3687069813
H       -0.7308895669    1.1974713769   -0.4691708507
H        0.3323442135    0.5479821075    0.7959150642
H       -2.8314213184    1.5427640296    2.6016002492
H       -1.0874237809    1.8111701502    2.5310434985
H       -2.1235860337    2.3854391004    1.2056247606
H       -3.9252561755   -0.1706527784    1.0598014531
H       -3.2955001305    0.7275733227   -0.3373001060
H       -2.9657217523   -1.0065754353   -0.1754657496
21   
torsion grid (150,)
C       -1.7367106047   -1.8091012710    4.0011626697
C       -0.9652364711   -1.9762580945    1.9178232689
C       -1.0699374871   -2.6751528959    3.1095329437
C       -0.6351128202    0.3621030611    0.1489148382
C       -1.9067511253    1.6509238748    1.8852702406
C       -3.1246049690   -0.0084271217    0.4232869940
C       -1.8036873298    0.3108479621    1.1444141643
N       -2.0274276704   -0.6533047854    3.3990403016
N       -1.5450493811   -0.7633650199    2.1378958881
Br      -0.4259413669   -4.4237065664    3.4537183395
H       -2.0047141951   -1.9749476630    5.0365440534
H       -0.5241991334   -2.2616374263    0.9753102558
H       -0.5714885804   -0.5422173528   -0.4636328910
H       -0.7807564480    1.2050220810   -0.5322206594
H        0.3171559310    0.5001358985    0.6692094492
H       -2.7278848462    1.6455954692    2.6026700816
H       -0.9827928629    1.8689404320    2.4282464712
H       -2.0790788622    2.4463897849    1.1541008006
H       -3.9461733443   -0.0599635736    1.1431394090
H       -3.3536486138    0.7695701881   -0.3118312214
H       -3.0624373917   -0.9683664411   -0.0989431096
21   
torsion grid (165,)
C       -1.9130948864   -1.9290677967    3.9211860369
C       -0.8129556443   -1.9265459022    1.9831161612
C       -1.0069597453   -2.6714746398    3.1357936752
C       -0.6963366891    0.2765223460    0.0951748980
C       -1.8113200432    1.6193633295    1.8996695424
C       -3.1822146576    0.0381604787    0.4804044314
C       -1.8161978827    0.2823519235    1.1432177217
N       -2.2569052890   -0.8010401424    3.2948709687
N       -1.5773919727   -0.8082214978    2.1228622789
Br      -0.1993150596   -4.3336561221    3.5548892509
H       -2.3151977797   -2.1631891074    4.8983729029
H       -0.1952580929   -2.1215034068    1.1206509748
H       -0.7107298264   -0.6291149385   -0.5190226826
H       -0.8364742088    1.1275358243   -0.5765375234
H        0.2883863743    0.3717263559    0.5626519098
H       -2.5877670744    1.6361468897    2.6655367508
H       -0.8452648776    1.7847589460    2.3863074719
H       -1.9906747227    2.4361470001    1.1939762876
H       -3.9723475951    0.0282000062    1.2354066651
H       -3.3990382471    0.8302318461   -0.2433277328
H       -3.1919895836   -0.9225635084   -0.0441418004
21   
torsion grid (180,)
C       -2.0726061379   -1.9734293129    3.8114415897
C       -0.6813864042   -1.7637789652    2.0827077683
C       -0.9403215556   -2.5471233520    3.1969360661
C       -0.7623943273    0.2544723286    0.0226651497
C       -1.7272086892    1.6465053688    1.8861702646
C       -3.2340864057    0.1658160292    0.4937827117
C       -1.8362362643    0.3219248427    1.1138894405
N       -2.4856746695   -0.9063951051    3.1231603302
N       -1.6332337948   -0.7903913080    2.0766565014
Br       0.0376845791   -4.0704620402    3.7571834849
H       -2.5914678201   -2.2881397733    4.7076315725
H        0.0916700007   -1.8462792340    1.3352834275
H       -0.8182127674   -0.6792768439   -0.5454529847
H       -0.9207173297    1.0789628797   -0.6773840624
H        0.2452736263    0.3593359772    0.4366852069
H       -2.4751382773    1.6872632266    2.6805255994
H       -0.7358356967    1.7487105942    2.3387243591
H       -1.8876286128    2.4887307594    1.2059640457
H       -4.0004759196    0.1858461821    1.2711776415
H       -3.4232434658    0.9824324193   -0.2099292202
H       -3.3130634421   -0.7833386422   -0.0456179310
