29   
torsion grid (-165,)
C        1.1361114575   -1.1504116263    0.2217187558
C        1.4046506961   -2.3022679650    0.9707516757
C        1.0922804957    0.0938176396    0.8588822238
C        1.6069860080   -2.2169195859    2.3488258458
C        1.3082708043    0.1920361033    2.2355462384
C        1.9158635699   -0.1585676337    6.4653415575
C        2.8570083666   -1.1729890447    6.1893169972
C        1.5461872021   -0.9685752761    2.9772534644
C        1.2015947180    0.0118984598    5.2870485201
C       -0.0428085784    0.8342778064    5.2069174207
C       -2.1476403273    1.4440908942    4.1951530107
C       -1.3511116325   -0.8604945511    3.9023802307
N        2.7562182178   -1.6076287834    4.9327247534
N        1.7321348776   -0.8968847077    4.3879085622
N       -1.0297222753    0.5096294660    4.3020896151
O       -0.1681580007    1.7764324809    5.9949494076
H        0.9726124366   -1.2213900776   -0.8501297169
H        1.4510648897   -3.2716662865    0.4819509035
H        0.9048032314    0.9958420138    0.2827067254
H        1.8144775715   -3.0997679669    2.9441586616
H        1.2964840411    1.1586375444    2.7268776684
H        1.7268080449    0.3659733833    7.3908027618
H        3.6054674491   -1.6040272854    6.8427653833
H       -2.6137745337    1.3170870063    3.2133904067
H       -1.7847550549    2.4660218192    4.2993328623
H       -2.9013500972    1.2661498820    4.9738574617
H       -2.3467444375   -1.1201061647    4.2840148273
H       -0.6421351906   -1.5700261369    4.3221059876
H       -1.3529690274   -0.9660364179    2.8127603656
29   
torsion grid (-150,)
C        1.1114647488   -1.0979466502    0.2105161881
C        1.4032182690   -2.2518450371    0.9475384320
C        1.0537731525    0.1403476699    0.8581395006
C        1.6140449288   -2.1760326834    2.3249474189
C        1.2790032774    0.2296356807    2.2338566872
C        1.8360939981   -0.2044161392    6.4800342625
C        2.7836603406   -1.2150325865    6.2037570655
C        1.5395393914   -0.9338209774    2.9646015928
C        1.1649129880    0.0005662384    5.2839325124
C       -0.0354678240    0.8745842833    5.1241364613
C       -2.1659001554    1.3859882830    4.0946598090
C       -1.3614362840   -0.9411803792    4.0052184688
N        2.7281092820   -1.6076109061    4.9306563008
N        1.7287167636   -0.8712504009    4.3734646686
N       -1.0671063286    0.4532033975    4.3221806389
O       -0.0809563034    1.9386474855    5.7490506654
H        0.9413160108   -1.1623478897   -0.8607005430
H        1.4605483996   -3.2161585606    0.4499011688
H        0.8497490430    1.0445525254    0.2910801728
H        1.8384054291   -3.0605930698    2.9114039742
H        1.2633924989    1.1935134896    2.7308616027
H        1.6279954772    0.2999746538    7.4128880960
H        3.5082706895   -1.6683496659    6.8688944546
H       -2.5928483524    1.1928055821    3.1054870850
H       -1.7926495546    2.4082048712    4.1421517198
H       -2.9544646557    1.2709908649    4.8502062297
H       -2.3601269904   -1.1918945718    4.3835739596
H       -0.6476984762   -1.6102725185    4.4813812287
H       -1.3415921741   -1.1151358799    2.9240090666
29   
torsion grid (-135,)
C        1.0740632159   -1.0396240375    0.2296141028
C        1.3842116487   -2.1912023705    0.9626979548
C        1.0186700071    0.1994690237    0.8759243216
C        1.6155437349   -2.1124404779    2.3366879538
C        1.2652245460    0.2920003677    2.2477541785
C        1.8049716943   -0.1836630442    6.5035021974
C        2.7430013887   -1.2068163898    6.2316591291
C        1.5441245567   -0.8696120309    2.9761893771
C        1.1735027610    0.0527941661    5.2934870093
C        0.0269390580    0.9823930743    5.0549233681
C       -2.1340702154    1.4196087338    4.0301975659
C       -1.3586189354   -0.9190897977    4.1765042579
N        2.7181238422   -1.5730241726    4.9500404789
N        1.7509636409   -0.8029420217    4.3808980977
N       -1.0696561793    0.4930904402    4.3953360110
O        0.0913661805    2.1411828684    5.4759526158
H        0.8881296846   -1.1063614572   -0.8388077770
H        1.4397695643   -3.1557151904    0.4651724222
H        0.8014637183    1.1018500938    0.3108420187
H        1.8539655739   -2.9946300509    2.9209483285
H        1.2577487215    1.2581032248    2.7412212153
H        1.5887534673    0.3104551987    7.4402546320
H        3.4411796264   -1.6847842567    6.9077287938
H       -2.4682858122    1.2016295151    3.0097522614
H       -1.7573026381    2.4396914470    4.0867206740
H       -2.9912745416    1.3240909880    4.7091634520
H       -2.3688035713   -1.1383058975    4.5416886595
H       -0.6597819325   -1.5494679676    4.7237113216
H       -1.3079935106   -1.1756559488    3.1121509623
29   
torsion grid (-120,)
C        1.0864216140   -1.0448784379    0.2063412388
C        1.4095133271   -2.2089864979    0.9135060013
C        1.0439334386    0.1815057337    0.8771444332
C        1.6662221705   -2.1548802868    2.2842096461
C        1.3160733784    0.2511455521    2.2457452140
C        1.8377413610   -0.3720152641    6.5004259307
C        2.7688630515   -1.3968968827    6.2034718528
C        1.6081910443   -0.9238594522    2.9481732625
C        1.2447132750   -0.0707516210    5.2871191811
C        0.1549722112    0.9173348002    5.0037250062
C       -2.0361377068    1.3508216341    4.0289713008
C       -1.3147097314   -0.9937969250    4.3206037542
N        2.7733806512   -1.7024457136    4.9065581394
N        1.8384096880   -0.8837429803    4.3497889604
N       -1.0103102017    0.4217792531    4.4849900528
O        0.3357995722    2.1149178022    5.2399942931
H        0.8809113210   -1.0920979181   -0.8595556714
H        1.4554125185   -3.1646670558    0.3982275186
H        0.8172925464    1.0942302729    0.3327672691
H        1.9148874806   -3.0473809232    2.8479774620
H        1.3221785294    1.2098270476    2.7535744789
H        1.6110815231    0.0831812773    7.4544461154
H        3.4421074913   -1.9159635624    6.8745390179
H       -2.2705005900    1.1560455494    2.9752234553
H       -1.6679879920    2.3692104632    4.1419761143
H       -2.9529447507    1.2331104556    4.6192613690
H       -2.3235729766   -1.1904565281    4.7003959719
H       -0.6149006729   -1.6091466426    4.8839160936
H       -1.2747524470   -1.2880158595    3.2648266359
29   
torsion grid (-105,)
C        1.1304276418   -1.0540967594    0.1654320539
C        1.4778220030   -2.2073268642    0.8789023481
C        1.0573103887    0.1737138021    0.8304435458
C        1.7299220274   -2.1414569536    2.2498766487
C        1.3239885335    0.2565463854    2.1997166871
C        1.7564981445   -0.4393273454    6.4778907641
C        2.7255941777   -1.4306860954    6.1835072435
C        1.6422666645   -0.9085548582    2.9079917083
C        1.2135682638   -0.1039027932    5.2510662609
C        0.1515226263    0.9037027066    4.9194426411
C       -2.0886262820    1.3099616426    4.0503235250
C       -1.3617700816   -1.0228502669    4.4395041114
N        2.7936650146   -1.6856231698    4.8782750700
N        1.8712839877   -0.8589283114    4.3103331392
N       -1.0628129512    0.4002063950    4.5452478106
O        0.4045307448    2.1100882595    4.9669881396
H        0.9295360606   -1.1109484745   -0.9008943793
H        1.5468791422   -3.1640725117    0.3681355017
H        0.8117087414    1.0787399243    0.2813821717
H        1.9984411308   -3.0251792275    2.8181918754
H        1.3080485596    1.2176108452    2.7020841877
H        1.4832252394   -0.0244842700    7.4382467999
H        3.3817345098   -1.9590530586    6.8642704307
H       -2.2946830449    1.1057040059    2.9919533119
H       -1.7357091215    2.3340174625    4.1603157049
H       -3.0160061557    1.1802175754    4.6196403390
H       -2.3677936153   -1.2095018705    4.8297328678
H       -0.6544962232   -1.6096832955    5.0241239950
H       -1.3227667169   -1.3580053381    3.3953815190
29   
torsion grid (-90,)
C        1.2992626528   -1.1164057858    0.0645547194
C        1.6301335765   -2.2496339325    0.8167492060
C        1.1950432097    0.1258227579    0.6973169948
C        1.8371447125   -2.1480223754    2.1930576427
C        1.4153159062    0.2452682047    2.0725051105
C        1.6774806552   -0.4451648910    6.3923686654
C        2.6903722848   -1.4017445538    6.1315314235
C        1.7201524031   -0.8999675972    2.8178960249
C        1.1899176696   -0.1014393777    5.1446043333
C        0.1405805040    0.9081078113    4.7721965130
C       -2.1789505165    1.3311685592    4.1618859105
C       -1.4709139712   -0.9906879482    4.6378387363
N        2.8281063033   -1.6335761502    4.8281931176
N        1.9169170483   -0.8176671933    4.2259889409
N       -1.1271188856    0.4261055553    4.6103789974
O        0.4462167636    2.0917553497    4.6070054253
H        1.1345836064   -1.2002279273   -1.0062621510
H        1.7226637123   -3.2179639725    0.3321121842
H        0.9604992897    1.0153238835    0.1187907497
H        2.0955932927   -3.0153783350    2.7904505193
H        1.3732392976    1.2164859840    2.5521428699
H        1.3476467940   -0.0532327342    7.3447444494
H        3.3287020399   -1.9210130206    6.8358808330
H       -2.4689657143    1.0981343956    3.1293710092
H       -1.8098181809    2.3543006771    4.2082524517
H       -3.0594105750    1.2266426005    4.8053437670
H       -2.3888531482   -1.1344867592    5.2180034631
H       -0.6751454508   -1.5703915299    5.1026475713
H       -1.6368993999   -1.3691646269    3.6211303569
29   
torsion grid (-75,)
C        1.6086812553   -1.1324423494   -0.0913545957
C        1.8482327517   -2.2708385599    0.6872005353
C        1.4815020013    0.1137287900    0.5289292368
C        1.9438988821   -2.1681663378    2.0755465315
C        1.5895396835    0.2336601299    1.9177141653
C        1.5297462571   -0.5102700135    6.2637203087
C        2.5815122983   -1.4332881192    6.0496449890
C        1.8055827448   -0.9153625560    2.6866955726
C        1.1108959884   -0.1518181317    4.9932803248
C        0.0592285067    0.8472493761    4.6035502733
C       -2.3082926114    1.3836249525    4.4203903147
C       -1.6571483672   -0.9328770688    4.9806269221
N        2.7984441524   -1.6407855829    4.7526800792
N        1.9070767737   -0.8366561840    4.1082100804
N       -1.2392175285    0.4420997340    4.7342978308
O        0.3782589713    1.9764870781    4.2209986961
H        1.5310289237   -1.2161466322   -1.1720773855
H        1.9571419231   -3.2428827410    0.2135052101
H        1.3143778364    1.0061013548   -0.0683024953
H        2.1344381273   -3.0391602420    2.6929466003
H        1.5192888674    1.2034512301    2.3958570654
H        1.1310543462   -0.1456425752    7.2007348407
H        3.1926072755   -1.9468133863    6.7817650416
H       -2.7701047173    1.1373695025    3.4557281479
H       -1.8945517305    2.3892888533    4.3688912184
H       -3.0777623471    1.3375924497    5.1986574151
H       -2.3023647633   -0.9812896327    5.8657364388
H       -0.7937740609   -1.5744492002    5.1447465771
H       -2.2206525397   -1.3137627474    4.1197428455
29   
torsion grid (-60,)
C        1.8326077111   -1.1643639480   -0.2053570565
C        2.0018121152   -2.3023986775    0.5918770147
C        1.6887464204    0.0885653389    0.3974270774
C        2.0147283611   -2.1912379591    1.9827714636
C        1.7123815969    0.2159098801    1.7895964690
C        1.4077246168   -0.5966667577    6.1484151165
C        2.5168340980   -1.4527576063    5.9633074292
C        1.8621310006   -0.9311868804    2.5755049237
C        1.0225183184   -0.2308856410    4.8669858501
C       -0.0455616779    0.7431756603    4.4728872973
C       -2.3854650407    1.3975195659    4.6003799619
C       -1.7702173131   -0.8990986503    5.2591879916
N        2.7980894320   -1.6185263358    4.6718852363
N        1.8956237666   -0.8500848679    4.0033174382
N       -1.3242548151    0.4266120399    4.8456355481
O        0.2399788280    1.8000672848    3.9018826420
H        1.8200042096   -1.2541134635   -1.2883767640
H        2.1212066995   -3.2794346556    0.1311666195
H        1.5715312183    0.9788489368   -0.2146316873
H        2.1532479236   -3.0612695679    2.6155084192
H        1.6131765572    1.1851395862    2.2623827054
H        0.9530748311   -0.2708304334    7.0743336796
H        3.1252666936   -1.9478911831    6.7100798766
H       -2.9819605541    1.1102091076    3.7248985013
H       -1.9423456896    2.3751647862    4.4190370854
H       -3.0455540972    1.4442366720    5.4733133559
H       -2.2155033304   -0.8617847472    6.2607157326
H       -0.9384541168   -1.5999668257    5.2737110233
H       -2.5290174279   -1.2690315995    4.5583309154
29   
torsion grid (-45,)
C        1.8686944294   -1.1954920260   -0.2170615430
C        3.0348284975   -1.3814202768    0.5334685687
C        0.6433980002   -1.0362637680    0.4377691847
C        2.9845225492   -1.3961298368    1.9281590656
C        0.5801140502   -1.0630246756    1.8318679812
C        1.2098340112   -0.9734197704    6.1277073384
C        2.2171879272   -1.9493868383    5.9537706322
C        1.7542857058   -1.2302802736    2.5715690975
C        0.9058709490   -0.5408582980    4.8435330395
C        0.1120839272    0.6510358836    4.4087083684
C       -1.9250694830    1.9694114432    4.6125872514
C       -1.9220233305   -0.3328682155    5.5064232343
N        2.5108747919   -2.1267559576    4.6655565548
N        1.7121585562   -1.2573762612    3.9944493436
N       -1.1725746435    0.7487392483    4.8797964625
O        0.6328952006    1.5145932573    3.7006860928
H        1.9139510491   -1.1783558042   -1.3026041483
H        3.9907100053   -1.5077753503    0.0322690915
H       -0.2692338364   -0.9013718006   -0.1363411766
H        3.8796048403   -1.5357313753    2.5241177493
H       -0.3756710025   -0.9627712036    2.3362095573
H        0.7885397862   -0.6002537632    7.0513429542
H        2.7346334242   -2.5333802623    6.7047830625
H       -2.6710874654    1.8052244412    3.8240736278
H       -1.2376300260    2.7492514597    4.2890268277
H       -2.4447135517    2.2865503756    5.5235603735
H       -2.1443150040   -0.1034441769    6.5563484229
H       -1.3633627769   -1.2658795565    5.4637743103
H       -2.8737156618   -0.4721454489    4.9790388071
29   
torsion grid (-30,)
C        1.9939568852   -1.2562596123   -0.2374660569
C        3.1435368984   -1.3134228276    0.5577932820
C        0.7336987021   -1.2139109270    0.3678668863
C        3.0398383420   -1.3164575353    1.9499163759
C        0.6203204176   -1.2287458546    1.7586420503
C        1.0808170339   -1.0518563006    6.0787912738
C        2.1270430739   -1.9879923033    5.9382040653
C        1.7755980590   -1.2675881054    2.5432001530
C        0.8075591609   -0.6158371043    4.7854602313
C        0.0318693845    0.5782838764    4.3326275744
C       -1.8620749204    2.0666492784    4.6593232732
C       -1.9420846639   -0.1682395704    5.7020524374
N        2.4780489443   -2.1391124638    4.6599013023
N        1.6818339426   -1.2894426122    3.9657104075
N       -1.1703812046    0.8162072092    4.9530116391
O        0.4936796388    1.3300987669    3.4714720926
H        2.0792096836   -1.2481001168   -1.3207539896
H        4.1258222419   -1.3483297753    0.0943332166
H       -0.1647018943   -1.1787830138   -0.2423630468
H        3.9208608334   -1.3576224600    2.5810861069
H       -0.3576987020   -1.2143445429    2.2289943835
H        0.6215262620   -0.6980306487    6.9913802171
H        2.6348945953   -2.5615038063    6.7036530290
H       -2.6685784228    1.9103656956    3.9305914275
H       -1.1525222497    2.7814910351    4.2459470193
H       -2.2971841173    2.4661958553    5.5817874847
H       -2.0240972043    0.1101930668    6.7605064178
H       -1.4863549547   -1.1540556911    5.6326148596
H       -2.9556194509   -0.2273206730    5.2867713433
29   
torsion grid (-15,)
C        2.2497818411   -1.5021099581   -0.1300756246
C        3.3538927434   -1.4117063154    0.7238062755
C        0.9597618829   -1.5656989110    0.4079202697
C        3.1738654174   -1.3739607156    2.1080871860
C        0.7718966274   -1.5389456661    1.7900305203
C        0.9883631711   -1.1937397525    6.1254957419
C        2.0733236687   -2.0891552840    6.0508874080
C        1.8807026356   -1.4309416849    2.6321810703
C        0.7604811182   -0.7808679094    4.8125883963
C        0.0067297376    0.4053016420    4.3073621049
C       -1.7424157569    2.0536977816    4.6328305570
C       -1.8978286421   -0.0666957722    5.8847181888
N        2.4997419010   -2.2332216226    4.7940410080
N        1.7132895957   -1.4207117997    4.0503982839
N       -1.1077017073    0.7955464697    5.0129050334
O        0.3959768070    1.0184580063    3.3103800091
H        2.3931279723   -1.5260725295   -1.2070385699
H        4.3587143483   -1.3640420107    0.3127870396
H        0.0975116934   -1.6446856851   -0.2486223209
H        4.0188965207   -1.3027297879    2.7845116557
H       -0.2262073487   -1.6002052342    2.2116415485
H        0.4809069813   -0.8475652165    7.0141261048
H        2.5612497446   -2.6365248268    6.8477603978
H       -2.5625692566    1.8883535261    3.9211792227
H       -1.0057532645    2.7046171119    4.1646420438
H       -2.1461659160    2.5362447433    5.5288373054
H       -1.8397428413    0.2541636431    6.9328303153
H       -1.5689260043   -1.1019318450    5.8127349504
H       -2.9486758372   -0.0234206852    5.5749086805
29   
torsion grid (0,)
C        2.6313424853   -1.0488099974   -0.1182068597
C        2.7840828474   -0.0660950397    0.8667135794
C        2.0052748281   -2.2582672854    0.1988194292
C        2.3136561200   -0.2878305882    2.1608205931
C        1.5250458314   -2.4843976446    1.4910823187
C        0.4301696225   -1.6703882432    5.8522688346
C        1.1478212947   -2.8579506180    5.6236639632
C        1.6762851362   -1.4930019461    2.4616479871
C        0.5018804129   -0.9512797703    4.6548442185
C       -0.3477063258    0.1682939967    4.1472949795
C       -1.9962095141    1.8955284659    4.5431981501
C       -0.6393402570    1.1291192779    6.4568768755
N        1.6298749172   -2.9022433881    4.3792917871
N        1.2167676811   -1.7581941022    3.7907133196
N       -1.0385017475    0.9251274193    5.0676124606
O       -0.4298268232    0.3979883830    2.9376923192
H        3.0008064879   -0.8732688538   -1.1250714927
H        3.2760254487    0.8731361436    0.6287244544
H        1.8856712288   -3.0265619729   -0.5603369338
H        2.4322885361    0.4678914514    2.9304476223
H        1.0382841328   -3.4174611215    1.7550420163
H       -0.1148037327   -1.4076090540    6.7455097361
H        1.3380755694   -3.6801784668    6.3022102348
H       -2.8055333303    2.0221650550    5.2688994681
H       -2.4032460020    1.5333990914    3.6004186961
H       -1.5240261178    2.8709021956    4.3634615223
H        0.3791751778    0.7831677278    6.6283990419
H       -1.3150220280    0.6227763873    7.1582008579
H       -0.6659092716    2.2018002048    6.6771624365
29   
torsion grid (15,)
C        2.6719921302   -0.9931480405   -0.0565172710
C        2.6496041917    0.0135285683    0.9149593805
C        2.1909905867   -2.2689358406    0.2554157312
C        2.1500970003   -0.2505003447    2.1905150390
C        1.6798464949   -2.5387926785    1.5266349339
C        0.2816065555   -1.7670225797    5.8168014404
C        1.0449611521   -2.9333037012    5.6143193722
C        1.6567107649   -1.5233791354    2.4851101563
C        0.3790612668   -1.0498210914    4.6238975371
C       -0.4803544775    0.0571704700    4.1083595576
C       -1.9744636263    1.9133624860    4.5561874835
C       -0.4264124574    1.2113396997    6.3454092857
N        1.5838042600   -2.9559039930    4.3932420923
N        1.1583427736   -1.8218545762    3.7898429276
N       -0.9920343358    0.9425762506    5.0280594585
O       -0.7360492717    0.1454218807    2.9048352460
H        3.0645400032   -0.7850853463   -1.0482760118
H        3.0293745565    1.0048454533    0.6829486740
H        2.2071760077   -3.0561198190   -0.4935588318
H        2.1424588824    0.5243209728    2.9502929651
H        1.3017617412   -3.5222086258    1.7847757971
H       -0.3092267761   -1.5107624427    6.6841998447
H        1.2303219114   -3.7534149203    6.2967517086
H       -2.6938258029    2.1122773836    5.3570852188
H       -2.4932271373    1.5117749867    3.6871009710
H       -1.4958299550    2.8592022290    4.2685826064
H        0.5350426058    0.7153318189    6.4663260201
H       -1.0991802187    0.8864663186    7.1495987874
H       -0.2659258726    2.2905867549    6.4532303393
29   
torsion grid (30,)
C        2.6984331404   -0.8477549120    0.0404229123
C        2.5436102483    0.1564618701    1.0017019304
C        2.3418948390   -2.1647609926    0.3496533977
C        2.0362538835   -0.1505717653    2.2649076171
C        1.8222849962   -2.4785949496    1.6067355162
C        0.1852781256   -1.8112277954    5.8303289021
C        1.0021976829   -2.9465514918    5.6445959750
C        1.6665049611   -1.4657806868    2.5568378330
C        0.3014004167   -1.0834638328    4.6494988484
C       -0.5526320727    0.0291167226    4.1342959073
C       -1.8691535584    2.0188885126    4.6001288449
C       -0.2020321891    1.3060300595    6.2734221728
N        1.5948823512   -2.9310221642    4.4493857477
N        1.1515588166   -1.8024293563    3.8430433768
N       -0.8953428243    1.0185632698    5.0234570893
O       -0.9594897474    0.0132212234    2.9705634423
H        3.0970588904   -0.6061862778   -0.9412001968
H        2.8267940307    1.1802464183    0.7727735894
H        2.4610846701   -2.9503750704   -0.3916376946
H        1.9329483186    0.6246592568    3.0174441814
H        1.5382262953   -3.4936664049    1.8621024551
H       -0.4447675710   -1.5749404023    6.6766089243
H        1.1910732247   -3.7679700237    6.3245501795
H       -2.5498076383    2.2373280600    5.4301645135
H       -2.4329275345    1.6350958750    3.7514987078
H       -1.3725784772    2.9511618478    4.2997738503
H        0.6876254891    0.6876842197    6.3756653982
H       -0.8537171250    1.1347593356    7.1397618776
H        0.1069170904    2.3585019464    6.2835168681
29   
torsion grid (45,)
C        2.7376404419   -0.7681909994    0.1538396276
C        2.4433521402    0.2191604080    1.0993551357
C        2.5237537302   -2.1145473000    0.4691506167
C        1.9396138090   -0.1329888958    2.3526062954
C        2.0075762199   -2.4758169779    1.7145002115
C        0.1617838784   -1.9520987223    5.8722546779
C        1.0493503633   -3.0385145906    5.7004678825
C        1.7120670266   -1.4795729457    2.6499973416
C        0.2767981728   -1.2081996974    4.7051362009
C       -0.5889522758   -0.0975407210    4.1991371733
C       -1.7166796056    2.0135845554    4.6441582320
C        0.0589430865    1.2832366405    6.1966415752
N        1.6789486246   -2.9756005616    4.5270128329
N        1.1959831001   -1.8599721473    3.9214266845
N       -0.7573055193    0.9839209439    5.0268314665
O       -1.1541744199   -0.2030683567    3.1093478452
H        3.1336168025   -0.4910835224   -0.8193749072
H        2.6155231549    1.2666215808    0.8672090213
H        2.7516321646   -2.8877566854   -0.2596243427
H        1.7341474568    0.6338119434    3.0927376021
H        1.8327795860   -3.5141972557    1.9734779820
H       -0.5023607370   -1.7523757273    6.7022427137
H        1.2612970642   -3.8568830932    6.3773774667
H       -2.3514910831    2.2634184375    5.5019037551
H       -2.3313521855    1.6417961595    3.8261173131
H       -1.2001073784    2.9247819656    4.3155827258
H        0.8812191386    0.5761144925    6.2862828457
H       -0.5394720994    1.2452440462    7.1158016773
H        0.4761674919    2.2935455238    6.1034496493
29   
torsion grid (60,)
C        2.6948983966   -0.7028149116    0.1210980387
C        1.3258151962   -0.4889318876    0.3049537212
C        3.4389044709   -1.3323742494    1.1257775001
C        0.6926284410   -0.8975578357    1.4826490577
C        2.8221325912   -1.7340158656    2.3113126628
C       -0.1290014516   -2.0685878601    5.6911913486
C        0.6308437329   -3.2266228455    5.4102936653
C        1.4511573646   -1.5071161027    2.4872543522
C        0.0332006309   -1.2568454399    4.5782616363
C       -0.6284143369    0.0574184456    4.2958174139
C       -1.0692775192    2.3386222585    5.0202444015
C        0.7599609578    1.0929059279    6.1096491645
N        1.2353240519   -3.1409066565    4.2264333522
N        0.8466650348   -1.9444747188    3.7077962356
N       -0.3547905077    1.0753742604    5.1695524415
O       -1.4220972329    0.1793742724    3.3577359537
H        3.1783593366   -0.3883500086   -0.8000619823
H        0.7377336925   -0.0142938249   -0.4759652064
H        4.5023945212   -1.5090957265    0.9884602929
H       -0.3698998278   -0.7451275579    1.6257908931
H        3.3818838214   -2.2307787114    3.0964268194
H       -0.7289660909   -1.8498079585    6.5643138649
H        0.7597196161   -4.1177630422    6.0121567275
H       -1.3816566759    2.6999204749    6.0061173837
H       -1.9425259397    2.1841063682    4.3889253386
H       -0.4260916267    3.0977621325    4.5567050086
H        1.3233500147    0.1638038220    6.0591848097
H        0.3970005026    1.2281243351    7.1356628989
H        1.4332815161    1.9254361807    5.8698537529
29   
torsion grid (75,)
C        2.6489324107   -0.5196946034    0.2894632193
C        1.2787403144   -0.3259637963    0.4863819182
C        3.3948606032   -1.2110407486    1.2513966132
C        0.6488923053   -0.8147261623    1.6349346858
C        2.7817443612   -1.6913711721    2.4092528762
C       -0.2569026507   -2.2017813955    5.7209588062
C        0.5822357588   -3.3106264540    5.4558712134
C        1.4098690932   -1.4831694303    2.6005369723
C       -0.0835061857   -1.3596969889    4.6353620593
C       -0.7724558611   -0.0572251815    4.3434942199
C       -0.9911907192    2.3149249223    4.8392288624
C        0.8899000794    1.0619095983    5.8401076938
N        1.2334226374   -3.1706385814    4.3032721199
N        0.8049131743   -1.9821678460    3.7929984749
N       -0.3288251142    1.0309242042    5.0403474599
O       -1.7060954989   -0.0077137225    3.5378072166
H        3.1309283064   -0.1439776910   -0.6091466244
H        0.6868300486    0.1925644092   -0.2631213110
H        4.4590068768   -1.3739702731    1.1025535492
H       -0.4183540838   -0.6901963242    1.7742943962
H        3.3442018330   -2.2333513856    3.1616455416
H       -0.9036363171   -2.0320899761    6.5711431103
H        0.7329229041   -4.2043590281    6.0488814786
H       -1.1627732820    2.7947600585    5.8088616587
H       -1.9418982826    2.1510816189    4.3346255182
H       -0.3703421972    2.9789601011    4.2243464241
H        1.3522907885    0.0775247455    5.8761568219
H        0.6653154532    1.3806780960    6.8648690479
H        1.6050030812    1.7711308048    5.4052185555
29   
torsion grid (90,)
C        2.5830192473   -0.2606020622    0.5446492853
C        1.2109017958   -0.0890987683    0.7500065025
C        3.3276180336   -1.0285534331    1.4476475117
C        0.5772442361   -0.6747779292    1.8497252286
C        2.7105415657   -1.6056554550    2.5582695382
C       -0.3901586326   -2.3366370854    5.7869213196
C        0.4994809853   -3.4034088122    5.5051049810
C        1.3370867656   -1.4190438510    2.7601310120
C       -0.2064913365   -1.4432223012    4.7471866140
C       -0.9112524987   -0.1459593695    4.4653328283
C       -0.8729833127    2.2847986635    4.5998375336
C        1.0418364400    1.0057514783    5.5044184584
N        1.1798946641   -3.1965257720    4.3800263368
N        0.7277702718   -1.9998667414    3.9088718781
N       -0.2920907117    0.9850652889    4.9158048856
O       -1.9747784758   -0.1378004993    3.8403791071
H        3.0673399556    0.1910798884   -0.3168438490
H        0.6203191229    0.4866275721    0.0424134878
H        4.3930137951   -1.1750489436    1.2907855324
H       -0.4937441089   -0.5735781840    1.9829841152
H        3.2713372189   -2.2046751435    3.2672330501
H       -1.0714376108   -2.2270253763    6.6195587207
H        0.6639501904   -4.3142205319    6.0677585239
H       -0.9126336791    2.9033202066    5.5030389156
H       -1.8789150672    2.1385043139    4.2100577188
H       -0.2659282133    2.8024212462    3.8460142272
H        1.3408674590    0.0056302231    5.8137535118
H        1.0446361008    1.6564750132    6.3855907863
H        1.7771933120    1.3879980810    4.7849902305
29   
torsion grid (105,)
C        2.5547421627   -0.1410379744    0.6981554616
C        1.1777968997   -0.0117101598    0.9032014239
C        3.3154036934   -0.9159418610    1.5818383229
C        0.5577923305   -0.6455831565    1.9835166270
C        2.7118703610   -1.5401958725    2.6741653609
C       -0.4669897942   -2.4547208619    5.8106045906
C        0.4761436157   -3.4776240517    5.5409218648
C        1.3337850312   -1.3944132331    2.8763516791
C       -0.2625599513   -1.5171614951    4.8148256694
C       -0.9730054181   -0.2187901180    4.5643234225
C       -0.8247641169    2.2108058026    4.4578062160
C        1.1133485195    0.9305849450    5.3108961290
N        1.2023340617   -3.2095732898    4.4573389584
N        0.7359190857   -2.0097763015    4.0101034293
N       -0.2644858243    0.9186475484    4.8339607104
O       -2.1227004600   -0.2166836670    4.1173368092
H        3.0298785067    0.3478828699   -0.1479238881
H        0.5742407794    0.5682566317    0.2102303192
H        4.3846098340   -1.0301621201    1.4244721141
H       -0.5167535312   -0.5770839760    2.1133674174
H        3.2863167126   -2.1423910956    3.3694520214
H       -1.1910376696   -2.3960692846    6.6114523577
H        0.6476688168   -4.4000494005    6.0820724522
H       -0.8354565528    2.8840274487    5.3223905036
H       -1.8422811297    2.0640157817    4.0994137209
H       -0.2199971180    2.6677922251    3.6641530393
H        1.3686043578   -0.0210901559    5.7752557825
H        1.2273411593    1.7199739248    6.0611561407
H        1.8145690180    1.1237834040    4.4892577488
29   
torsion grid (120,)
C        2.5287067626   -0.1276305598    0.7457679512
C        1.1489551945   -0.0249414232    0.9498680001
C        3.3042988668   -0.8824724163    1.6335522533
C        0.5431787200   -0.6648405637    2.0340044272
C        2.7137942222   -1.5121874686    2.7301846114
C       -0.5378601658   -2.5310302239    5.7913532585
C        0.4358039100   -3.5279553364    5.5394138658
C        1.3338668334   -1.3915494156    2.9319607925
C       -0.3044777387   -1.5586535318    4.8350309229
C       -1.0105169632   -0.2511428579    4.6457908784
C       -0.8431218823    2.1692633305    4.4153463994
C        1.1404880176    0.9151487798    5.1864444426
N        1.2064298921   -3.2158563267    4.4981143205
N        0.7459155445   -2.0083634401    4.0691263910
N       -0.2532190085    0.8828055172    4.7621068934
O       -2.2195768003   -0.2362046710    4.3993703742
H        2.9938369694    0.3661553328   -0.1030188199
H        0.5342037700    0.5388142663    0.2534170548
H        4.3754538804   -0.9766585922    1.4764573700
H       -0.5326784557   -0.6168021268    2.1650692777
H        3.3006732659   -2.0980302281    3.4291794194
H       -1.2980306452   -2.5036478472    6.5595468152
H        0.6012228773   -4.4616105198    6.0628040194
H       -0.8764187116    2.8272197392    5.2921653518
H       -1.8568426647    2.0082553699    4.0522338256
H       -0.2424749408    2.6541326538    3.6359810923
H        1.4315226198   -0.0333693264    5.6350845396
H        1.2685756308    1.7014590755    5.9388221886
H        1.8073569158    1.1270454086    4.3419129548
29   
torsion grid (135,)
C        0.8176858688   -1.6934173630    0.3730161840
C        0.1217854563   -2.2532241550    1.4493392838
C        1.8364550263   -0.7644529936    0.6154688181
C        0.4331541093   -1.8869527215    2.7608959478
C        2.1448361911   -0.3784699467    1.9206936553
C        1.6757343777   -0.0912229523    6.4836082270
C        2.9944434561   -0.0401287909    5.9742219945
C        1.4327759915   -0.9350041082    2.9892529000
C        0.8812779159   -0.3899417746    5.3891375056
C       -0.6118980712   -0.4657967326    5.3659298955
C       -2.7164949171    0.0619638656    4.2683855289
C       -0.6959032679    1.3017741470    3.5838585692
N        3.0307298139   -0.3060628269    4.6684232388
N        1.7330989960   -0.5135369687    4.3132456756
N       -1.2751974774    0.2386838604    4.3960012862
O       -1.1962933171   -1.1337089937    6.2242215980
H        0.5762814509   -1.9863619424   -0.6450708222
H       -0.6550216053   -2.9921913826    1.2725754917
H        2.3892998130   -0.3329892087   -0.2146404198
H       -0.0828646346   -2.3491127131    3.5957927072
H        2.9290875760    0.3420818616    2.1262634801
H        1.3282706180    0.0819809128    7.4923819105
H        3.9181375059    0.1663940645    6.5006591430
H       -3.2590006006    0.9116245885    4.7027962510
H       -3.0150781587   -0.8454131449    4.7911376837
H       -2.9778511461   -0.0159404694    3.2072061112
H       -0.6525423677    1.0148838145    2.5269402623
H        0.3088765495    1.5480046459    3.9223957107
H       -1.3145276784    2.2022373579    3.6772611719
29   
torsion grid (150,)
C        0.8603204233   -1.6846272952    0.3448270809
C        0.1417471779   -2.2340434932    1.4115703440
C        1.8733938483   -0.7526430979    0.5995432106
C        0.4251060900   -1.8535958155    2.7254430936
C        2.1535785069   -0.3537518640    1.9071589949
C        1.6211566000   -0.1049385611    6.4737512354
C        2.9464651476   -0.0837997747    5.9853615668
C        1.4184912849   -0.8991426556    2.9654529437
C        0.8285753511   -0.3507886735    5.3626349233
C       -0.6643655113   -0.3104451325    5.3607028868
C       -2.7726447441    0.1616726744    4.2703492752
C       -0.7437561671    1.2547857287    3.3981628011
N        2.9912120632   -0.3143018996    4.6727652645
N        1.6935610291   -0.4650114846    4.2922397566
N       -1.3163788478    0.2517811580    4.2911983393
O       -1.2704068061   -0.7547582640    6.3405692404
H        0.6405895816   -1.9876419572   -0.6752251014
H       -0.6314770270   -2.9745209128    1.2255935488
H        2.4436439098   -0.3292196248   -0.2228722124
H       -0.1120535398   -2.3016072259    3.5543391431
H        2.9332303672    0.3692293504    2.1220087182
H        1.2612423340    0.0612736683    7.4791086057
H        3.8691527405    0.0794031602    6.5284821811
H       -3.2364036309    1.0218949178    4.7711782937
H       -3.0896147701   -0.7451980586    4.7838194548
H       -3.1089087514    0.1348576541    3.2290921336
H       -0.7508882425    0.9105556864    2.3584090811
H        0.2791804676    1.4935170764    3.6816585777
H       -1.3347574512    2.1763653752    3.4677894851
29   
torsion grid (165,)
C        0.9139059778   -1.6603545087    0.3373624101
C        0.2006446401   -2.2262565492    1.3990058080
C        1.9082845091   -0.7104376422    0.5995579624
C        0.4705728777   -1.8447114766    2.7154308859
C        2.1751423123   -0.3115728537    1.9099209175
C        1.6515861711   -0.1884151746    6.4913981927
C        2.9741360194   -0.1603315152    6.0007079665
C        1.4451347661   -0.8736293302    2.9625905594
C        0.8486589925   -0.3790488186    5.3747650426
C       -0.6385505103   -0.2458100802    5.4150956070
C       -2.7835855234    0.1566744229    4.3852153906
C       -0.7959764461    1.1518094750    3.3398201367
N        3.0111215128   -0.3282602622    4.6783221984
N        1.7112781744   -0.4421553375    4.2940433213
N       -1.3253305921    0.1847212074    4.3012859820
O       -1.2151252376   -0.4913275134    6.4788174579
H        0.7042707796   -1.9638145084   -0.6846844761
H       -0.5587386047   -2.9793587725    1.2067332960
H        2.4744138605   -0.2738338413   -0.2187910071
H       -0.0660271491   -2.2989415340    3.5410096373
H        2.9410550871    0.4243607705    2.1305335749
H        1.2930879935   -0.0504536355    7.5012754410
H        3.9006537150   -0.0307164228    6.5463351084
H       -3.1788190246    1.0491122191    4.8886619389
H       -3.1033891849   -0.7207522883    4.9463073208
H       -3.1889331261    0.1123357363    3.3698621512
H       -0.8637128655    0.7708496025    2.3157609695
H        0.2418284577    1.3941334320    3.5557921689
H       -1.3759699350    2.0808263979    3.4101262240
29   
torsion grid (180,)
C        0.9658626712   -1.6385815197    0.3365178200
C        0.2494665695   -2.2134485757    1.3910938179
C        1.9437981405   -0.6739026416    0.6072095059
C        0.4999377760   -1.8261176483    2.7098045969
C        2.1916380320   -0.2708762086    1.9200063060
C        1.6457373165   -0.2527220761    6.5077380241
C        2.9700103686   -0.2313901107    6.0253589442
C        1.4583304713   -0.8418489852    2.9652354565
C        0.8396801778   -0.3864031595    5.3829943094
C       -0.6360255925   -0.1487655276    5.4518303711
C       -2.8129827407    0.1814405551    4.4837634798
C       -0.8717302984    1.0588668058    3.2752485029
N        3.0086819407   -0.3406014699    4.6972765406
N        1.7089691038   -0.4093214738    4.3016055233
N       -1.3608747191    0.1438849000    4.3112054368
O       -1.1724078909   -0.1844768123    6.5623285109
H        0.7709903249   -1.9458701100   -0.6873043154
H       -0.4981187351   -2.9764490220    1.1916264404
H        2.5118554109   -0.2300409951   -0.2058963967
H       -0.0430623494   -2.2804402426    3.5310447050
H        2.9454705760    0.4755006486    2.1474822416
H        1.2845453210   -0.1325150860    7.5186737619
H        3.8963799707   -0.1410578436    6.5791687427
H       -3.1448013994    1.1140198357    4.9593322123
H       -3.1333497761   -0.6520729955    5.1084981407
H       -3.2778476413    0.0983576347    3.4970130071
H       -0.9887196302    0.6269107919    2.2767336403
H        0.1751157358    1.3073403313    3.4288022660
H       -1.4435075571    1.9945583363    3.3260287372
