
  -OEChem-05262117483D

 39 42  0     0  0  0  0  0  0999 V2000
   -3.5485   -5.9662    3.7713 C   0  0  0  0  0  0  0  0  0  0  0  0
    4.7186    0.7607    0.2028 C   0  0  0  0  0  0  0  0  0  0  0  0
   -3.2893   -4.7123    4.2857 C   0  0  0  0  0  0  0  0  0  0  0  0
    3.4510    1.3374    0.3132 C   0  0  0  0  0  0  0  0  0  0  0  0
   -3.5236   -6.1920    2.3734 C   0  0  0  0  0  0  0  0  0  0  0  0
   -2.4503   -1.3234    2.9438 C   0  0  0  0  0  0  0  0  0  0  0  0
    4.8133   -0.6315    0.1492 C   0  0  0  0  0  0  0  0  0  0  0  0
    2.5387   -0.8754    0.3024 C   0  0  0  0  0  0  0  0  0  0  0  0
   -2.9930   -3.6388    3.4078 C   0  0  0  0  0  0  0  0  0  0  0  0
    2.3215    0.5142    0.3658 C   0  0  0  0  0  0  0  0  0  0  0  0
   -2.9576   -3.8356    1.9920 C   0  0  0  0  0  0  0  0  0  0  0  0
   -2.7243   -2.3149    3.8628 C   0  0  0  0  0  0  0  0  0  0  0  0
   -3.2371   -5.1500    1.5237 C   0  0  0  0  0  0  0  0  0  0  0  0
   -2.4262   -1.6442    1.5595 C   0  0  0  0  0  0  0  0  0  0  0  0
    0.0172    0.4421    1.5596 C   0  0  0  0  0  0  0  0  0  0  0  0
   -0.1127    0.5647   -0.5405 C   0  0  0  0  0  0  0  0  0  0  0  0
    0.9374    1.0930    0.4839 C   0  0  0  0  0  0  0  0  0  0  0  0
   -2.0711   -0.5743    0.5478 C   0  0  0  0  0  0  0  0  0  0  0  0
    3.7465   -1.4439    0.1975 N   0  0  0  0  0  0  0  0  0  0  0  0
   -2.6763   -2.8535    1.0913 N   0  0  0  0  0  0  0  0  0  0  0  0
   -0.6332   -0.3513    0.4962 N   0  0  0  0  0  0  0  0  0  0  0  0
   -2.7639   -2.1053    5.2102 O   0  0  0  0  0  0  0  0  0  0  0  0
   -3.2171   -5.3721    0.1940 F   0  0  0  0  0  0  0  0  0  0  0  0
   -3.7749   -6.7944    4.4368 H   0  0  0  0  0  0  0  0  0  0  0  0
    5.6144    1.3741    0.1594 H   0  0  0  0  0  0  0  0  0  0  0  0
   -3.3080   -4.5318    5.3549 H   0  0  0  0  0  0  0  0  0  0  0  0
    3.3404    2.4194    0.3580 H   0  0  0  0  0  0  0  0  0  0  0  0
   -3.7259   -7.1743    1.9571 H   0  0  0  0  0  0  0  0  0  0  0  0
   -2.2562   -0.3026    3.2662 H   0  0  0  0  0  0  0  0  0  0  0  0
    5.7843   -1.1174    0.0638 H   0  0  0  0  0  0  0  0  0  0  0  0
    1.6869   -1.5534    0.3372 H   0  0  0  0  0  0  0  0  0  0  0  0
    0.4996   -0.1470    2.3466 H   0  0  0  0  0  0  0  0  0  0  0  0
   -0.6550    1.1876    2.0196 H   0  0  0  0  0  0  0  0  0  0  0  0
   -0.8298    1.3507   -0.8293 H   0  0  0  0  0  0  0  0  0  0  0  0
    0.2655    0.0667   -1.4396 H   0  0  0  0  0  0  0  0  0  0  0  0
    0.9955    2.1817    0.5439 H   0  0  0  0  0  0  0  0  0  0  0  0
   -2.3962   -0.9250   -0.4344 H   0  0  0  0  0  0  0  0  0  0  0  0
   -2.6151    0.3629    0.7800 H   0  0  0  0  0  0  0  0  0  0  0  0
   -2.5596   -1.1739    5.3946 H   0  0  0  0  0  0  0  0  0  0  0  0
  1  3  1  0  0  0  0
  1  5  2  0  0  0  0
  1 24  1  0  0  0  0
  2  4  2  0  0  0  0
  2  7  1  0  0  0  0
  2 25  1  0  0  0  0
  3  9  2  0  0  0  0
  3 26  1  0  0  0  0
  4 10  1  0  0  0  0
  4 27  1  0  0  0  0
  5 13  1  0  0  0  0
  5 28  1  0  0  0  0
  6 12  2  0  0  0  0
  6 14  1  0  0  0  0
  6 29  1  0  0  0  0
  7 19  2  0  0  0  0
  7 30  1  0  0  0  0
  8 10  2  0  0  0  0
  8 19  1  0  0  0  0
  8 31  1  0  0  0  0
  9 11  1  0  0  0  0
  9 12  1  0  0  0  0
 10 17  1  0  0  0  0
 11 13  2  0  0  0  0
 11 20  1  0  0  0  0
 12 22  1  0  0  0  0
 13 23  1  0  0  0  0
 14 18  1  0  0  0  0
 14 20  2  0  0  0  0
 15 17  1  0  0  0  0
 15 21  1  0  0  0  0
 15 32  1  0  0  0  0
 15 33  1  0  0  0  0
 16 17  1  0  0  0  0
 16 21  1  0  0  0  0
 16 34  1  0  0  0  0
 16 35  1  0  0  0  0
 17 36  1  0  0  0  0
 18 21  1  0  0  0  0
 18 37  1  0  0  0  0
 18 38  1  0  0  0  0
 22 39  1  0  0  0  0
M  END
$$$$
