34
0 1 C12H19NO2
C                     1.218905305361    -0.574237787890     2.152341191248
C                     4.580105235039     0.744415564271     3.656794191976
C                     4.590971857310    -0.498090446716     2.785747389043
C                     0.302165023972     1.120693936264    -0.734957521775
C                    -0.445209852722    -1.281022105472    -0.746162632248
C                     0.017624257585     1.160837308882     0.773560396031
C                    -0.707567801486    -1.175859676207     0.761729856305
C                    -2.042869523786     0.545621551245    -1.680671805937
C                    -0.484302025394     0.066850898814    -2.973070649928
C                     3.316214305119    -0.065641554260     3.465237693326
C                    -0.582441251763     0.081714756398    -1.430680665086
C                     2.184097867092     0.509523786028     2.645761500910
N                     0.167186797994    -0.167224242573     1.362220162658
O                     1.364050851218    -1.753499771930     2.478083986305
O                    -1.853697651109     0.527268590182    -3.118093844722
H                     5.077713887072     0.700860565009     4.621366706186
H                     4.648991524034     1.710961613137     3.163391593875
H                     4.661276457649    -0.361986094590     1.709406969868
H                     5.092011572666    -1.386878476565     3.156482799091
H                     0.136256649327     2.112883817507    -1.171830430964
H                     1.358250973737     0.865228991637    -0.892846575633
H                     0.568941152644    -1.670316850404    -0.900993253500
H                    -1.141445149613    -1.999765161253    -1.194459424353
H                     0.667507017555     1.876261989626     1.273790147457
H                    -1.014155778545     1.498824656040     0.944613405060
H                    -1.751074960240    -0.884759536039     0.945265584222
H                    -0.522891331547    -2.123780867467     1.264740370471
H                    -2.824101417716    -0.158811621407    -1.367567260242
H                    -2.296683895900     1.551154577645    -1.320940376688
H                     0.229267074294     0.776420545937    -3.411001177982
H                    -0.340447862435    -0.923034637931    -3.424433648253
H                     2.997526479467    -0.678053529947     4.302892027822
H                     2.595761737067     1.057358779710     1.789553282056
H                     1.621551170150     1.244581359339     3.236765750126
