34
0 1 C12H19NO2
C                     1.663608185148    -0.312742075181     1.826085813977
C                     4.746263942256    -1.527834166605     2.721618937640
C                     4.245199837123    -2.599946237611     3.671445738371
C                     0.531756515647     0.673168329983    -1.226322475400
C                     0.361709096780    -1.826273005123    -0.994866205570
C                     0.152383181944     0.806111710834     0.254406674874
C                    -0.014443293995    -1.623385187235     0.480118281574
C                    -1.552324175700    -0.550089865402    -2.189340642681
C                     0.154191787939    -0.774821065484    -3.357973557392
C                     3.370663856625    -1.413374067289     3.328464805172
C                    -0.042149933224    -0.609812958860    -1.833803593714
C                     2.147507660147    -1.619236321485     2.465065496658
N                     0.566903719840    -0.386576790234     0.995894756730
O                     2.214218681549     0.760815618005     2.074886512483
O                    -1.277300010559    -0.744831645728    -3.599577546377
H                     5.516673289085    -0.846390230019     3.068789472652
H                     4.813613722886    -1.777352291823     1.665601071815
H                     3.983005605205    -3.568095735760     3.251513199306
H                     4.678371702068    -2.649153717334     4.666347980908
H                     0.171205142185     1.547109679341    -1.781772768360
H                     1.625783222559     0.663211569717    -1.309817135221
H                     1.446650418371    -1.977366963213    -1.069807647132
H                    -0.122420443303    -2.730923222406    -1.382251901379
H                     0.631460608987     1.670589683590     0.711350841739
H                    -0.935528686503     0.918241377215     0.358427721814
H                    -1.107076656144    -1.554333699699     0.575153910060
H                     0.298042230783    -2.473514519924     1.083601688315
H                    -2.175385990922    -1.358423898266    -1.785343031749
H                    -2.044135739016     0.413411615300    -2.003584656524
H                     0.666025718248     0.057859796998    -3.857018592170
H                     0.598960513247    -1.724665688903    -3.680937870462
H                     3.255725709200    -0.654106795343     4.095675064092
H                     1.329870236827    -2.049064310344     3.058907511584
H                     2.373837859131    -2.352811224919     1.681831534837
