21
0 1 C9F3H8N
C                    -0.676398131338     3.358186969269     1.886858345220
C                    -0.486631066593     3.210429293573     3.264497350644
C                     0.065719766651     1.040646400294     1.500207052127
C                    -0.398708654048     2.285927257821     1.051369123406
C                    -0.027510817202     1.995542316528     3.752101918093
C                     0.241341808136     0.935890061620     2.884641857126
C                     1.328020593139     0.124581105605    -0.608093080007
C                     0.127057215734    -0.158653032289    -1.545444205198
C                     0.360215250681    -0.129207156905     0.590825974705
N                    -0.711917855120    -0.541078332053    -0.369972622266
F                    -0.592941191268     2.458223330576    -0.285049829572
F                     0.166373066321     1.821374496353     5.076895953733
F                     0.687678295015    -0.219927133568     3.419818820801
H                    -1.032763728938     4.290433672253     1.461439635509
H                    -0.689258195912     4.021218248310     3.956610134809
H                     2.140094919321    -0.603115617997    -0.666191393049
H                     1.743021618650     1.131596823049    -0.669235754834
H                    -0.225105180200     0.725529123787    -2.086052850142
H                     0.256380458244    -0.983290893303    -2.253760342636
H                     0.661362264702    -0.970525625535     1.217144616362
H                    -1.566982770735     0.002997418474    -0.285631940379
