39
0 1 C18FH16N3O
C                    -2.904859427008    -5.624078244367     4.529471204684
C                     3.323636888641    -1.469960478705    -0.511171199354
C                    -3.879536548305    -4.800852503323     4.001358740896
C                     2.194555774052    -0.917875795139     0.091208539522
C                    -1.534111552433    -5.296549285720     4.395916423068
C                    -4.007506504767    -1.581646419412     2.100326691011
C                     4.496939527648    -0.709408872503    -0.571694768594
C                     3.498787888323     1.046581604263     0.501140677076
C                    -3.505839169364    -3.616351627855     3.318642873967
C                     2.270020815297     0.381795822305     0.616288045294
C                    -2.131017318197    -3.260622810359     3.165378559050
C                    -4.453007420830    -2.713244713573     2.748113993895
C                    -1.174978781363    -4.147033649176     3.731997798512
C                    -2.608384164031    -1.337897262434     2.006449156267
C                     0.220205893539     0.134204542438     2.174659965081
C                    -0.184157786312     1.156418949053     0.375738097936
C                     1.091018974774     1.051169808810     1.267586724727
C                    -2.143611338928    -0.072332793709     1.311370736011
N                     4.594387712080     0.530777013922    -0.075378346143
N                    -1.698681521494    -2.140860411198     2.519667477660
N                    -0.726095316943    -0.042678613008     1.047989866532
O                    -5.770819852193    -3.038466909383     2.883199949770
F                     0.133489560525    -3.838840725262     3.608133220018
H                    -3.182751822592    -6.533484796380     5.054446806511
H                     3.302870831871    -2.474140012679    -0.926175997898
H                    -4.931431208182    -5.045412089908     4.100633248176
H                     1.262601288016    -1.474109794257     0.159075368621
H                    -0.758536509968    -5.935413210887     4.807413290007
H                    -4.709603270074    -0.877966313557     1.655644152796
H                     5.395352909951    -1.114351895564    -1.035885160092
H                     3.604540905815     2.055933914264     0.900716022851
H                     0.660355261638    -0.794144913267     2.542554418480
H                    -0.219434459001     0.688313244166     3.020098136505
H                    -0.753725177851     2.076095830579     0.592632352865
H                    -0.053103319390     1.055960190801    -0.707554529721
H                     1.400960982830     1.993840773666     1.723312561608
H                    -2.674113043114     0.020596175010     0.354910804780
H                    -2.470333032449     0.791435388362     1.929882669700
H                    -6.314487919306    -2.355088607838     2.458095460195
