39
0 1 C18FH16N3O
C                    -3.601989541395    -4.362192663237     5.702110445972
C                     3.552185477868    -0.378923300236     1.635635158111
C                    -3.520119106354    -4.708667891144     4.369483111210
C                     2.264549001228    -0.409008262937     1.103466027118
C                    -3.403803399523    -3.021450385366     6.110337606304
C                    -2.861392800340    -2.962671576890     1.114202265416
C                     4.643574358096    -0.339318116716     0.760151479438
C                     3.269458323493    -0.356923233962    -1.068294755946
C                    -3.233982457918    -3.724366724461     3.385527576622
C                     2.103539114186    -0.397820610020    -0.291167112836
C                    -3.026823825391    -2.360427143335     3.773693803525
C                    -3.139893564504    -3.995090954342     1.985899940443
C                    -3.127186596189    -2.064722965639     5.164101410534
C                    -2.662054660847    -1.655687365407     1.621235007934
C                    -0.291686299181     0.582948023610    -0.375003737554
C                    -0.223672120688    -1.522440670763    -0.400866670463
C                     0.747688715823    -0.430854375685    -0.941562952446
C                    -2.290313888184    -0.532336007027     0.675875812264
N                     4.515302283781    -0.328332895249    -0.572789429864
N                    -2.745123221887    -1.353670151213     2.907592669636
N                    -0.850910493504    -0.498944660445     0.462991021933
O                    -3.319035893881    -5.241057546157     1.464138190570
F                    -2.939851248897    -0.790571374272     5.556980405008
H                    -3.820037661940    -5.118558747584     6.450213057750
H                     3.714732831086    -0.385767948159     2.710081323959
H                    -3.678930442006    -5.750116127207     4.096607585464
H                     1.388307620166    -0.440882103907     1.747121794805
H                    -3.465398288026    -2.734490167853     7.155482452106
H                    -2.798588583157    -3.164331296183     0.049678860198
H                     5.661831196522    -0.315466496424     1.146170485141
H                     3.192077607827    -0.346925838177    -2.156142027731
H                     0.092580595486     1.442451624750     0.184717460005
H                    -0.986179449442     0.933219330697    -1.156371122017
H                    -0.895575140334    -1.894612124883    -1.192916020809
H                     0.214765179214    -2.372633959809     0.131484677410
H                     0.853624172449    -0.414592479537    -2.028080613571
H                    -2.838747344248    -0.644056233125    -0.279451293437
H                    -2.588227581822     0.413004603940     1.136459305435
H                    -3.514198613511    -5.875045098035     2.171423384966
