
  -OEChem-05262117483D

 21 22  0     1  0  0  0  0  0999 V2000
   -0.6764    3.3582    1.8869 C   0  0  0  0  0  0  0  0  0  0  0  0
   -0.4866    3.2104    3.2645 C   0  0  0  0  0  0  0  0  0  0  0  0
    0.0657    1.0406    1.5002 C   0  0  0  0  0  0  0  0  0  0  0  0
   -0.3987    2.2859    1.0514 C   0  0  0  0  0  0  0  0  0  0  0  0
   -0.0275    1.9955    3.7521 C   0  0  0  0  0  0  0  0  0  0  0  0
    0.2413    0.9359    2.8846 C   0  0  0  0  0  0  0  0  0  0  0  0
    1.3280    0.1246   -0.6081 C   0  0  0  0  0  0  0  0  0  0  0  0
    0.1271   -0.1587   -1.5454 C   0  0  0  0  0  0  0  0  0  0  0  0
    0.3602   -0.1292    0.5908 C   0  0  2  0  0  0  0  0  0  0  0  0
   -0.7119   -0.5411   -0.3700 N   0  0  0  0  0  0  0  0  0  0  0  0
   -0.5929    2.4582   -0.2850 F   0  0  0  0  0  0  0  0  0  0  0  0
    0.1664    1.8214    5.0769 F   0  0  0  0  0  0  0  0  0  0  0  0
    0.6877   -0.2199    3.4198 F   0  0  0  0  0  0  0  0  0  0  0  0
   -1.0328    4.2904    1.4614 H   0  0  0  0  0  0  0  0  0  0  0  0
   -0.6893    4.0212    3.9566 H   0  0  0  0  0  0  0  0  0  0  0  0
    2.1401   -0.6031   -0.6662 H   0  0  0  0  0  0  0  0  0  0  0  0
    1.7430    1.1316   -0.6692 H   0  0  0  0  0  0  0  0  0  0  0  0
   -0.2251    0.7255   -2.0861 H   0  0  0  0  0  0  0  0  0  0  0  0
    0.2564   -0.9833   -2.2538 H   0  0  0  0  0  0  0  0  0  0  0  0
    0.6614   -0.9705    1.2171 H   0  0  0  0  0  0  0  0  0  0  0  0
   -1.5670    0.0030   -0.2856 H   0  0  0  0  0  0  0  0  0  0  0  0
  1  2  1  0  0  0  0
  1  4  2  0  0  0  0
  1 14  1  0  0  0  0
  2  5  2  0  0  0  0
  2 15  1  0  0  0  0
  3  4  1  0  0  0  0
  3  6  2  0  0  0  0
  3  9  1  0  0  0  0
  4 11  1  0  0  0  0
  5  6  1  0  0  0  0
  5 12  1  0  0  0  0
  6 13  1  0  0  0  0
  7  8  1  0  0  0  0
  7  9  1  0  0  0  0
  7 16  1  0  0  0  0
  7 17  1  0  0  0  0
  8 10  1  0  0  0  0
  8 18  1  0  0  0  0
  8 19  1  0  0  0  0
  9 10  1  0  0  0  0
  9 20  1  0  0  0  0
 10 21  1  0  0  0  0
M  END
$$$$
