
  -OEChem-05262117483D

 34 36  0     0  0  0  0  0  0999 V2000
   -1.4048    0.0457    2.0296 C   0  0  0  0  0  0  0  0  0  0  0  0
    0.3105   -1.5263    4.2315 C   0  0  0  0  0  0  0  0  0  0  0  0
    0.4948   -0.4652    5.2970 C   0  0  0  0  0  0  0  0  0  0  0  0
    1.1149    1.2221   -0.4077 C   0  0  0  0  0  0  0  0  0  0  0  0
   -0.2062   -0.8017   -1.0681 C   0  0  0  0  0  0  0  0  0  0  0  0
    0.1649    1.5655    0.7655 C   0  0  0  0  0  0  0  0  0  0  0  0
   -1.3387    0.0204   -0.4192 C   0  0  0  0  0  0  0  0  0  0  0  0
    2.3694   -0.7951   -1.4696 C   0  0  0  0  0  0  0  0  0  0  0  0
    1.8664   -1.0644    0.5276 C   0  0  0  0  0  0  0  0  0  0  0  0
    0.3573   -0.0665    3.8429 C   0  0  0  0  0  0  0  0  0  0  0  0
    1.1755   -0.2909   -0.6274 C   0  0  0  0  0  0  0  0  0  0  0  0
   -0.9129    0.6191    3.3570 C   0  0  0  0  0  0  0  0  0  0  0  0
   -0.9017    0.5667    0.8648 N   0  0  0  0  0  0  0  0  0  0  0  0
   -2.2294   -0.8739    2.0273 O   0  0  0  0  0  0  0  0  0  0  0  0
    2.9872   -1.4274   -0.3200 O   0  0  0  0  0  0  0  0  0  0  0  0
    1.1619   -2.1509    3.9772 H   0  0  0  0  0  0  0  0  0  0  0  0
   -0.6530   -2.0216    4.1619 H   0  0  0  0  0  0  0  0  0  0  0  0
   -0.3431   -0.2580    5.9570 H   0  0  0  0  0  0  0  0  0  0  0  0
    1.4703   -0.3687    5.7650 H   0  0  0  0  0  0  0  0  0  0  0  0
    0.7716    1.7050   -1.3305 H   0  0  0  0  0  0  0  0  0  0  0  0
    2.1102    1.6253   -0.1932 H   0  0  0  0  0  0  0  0  0  0  0  0
   -0.3082   -1.8604   -0.8098 H   0  0  0  0  0  0  0  0  0  0  0  0
   -0.2901   -0.7288   -2.1597 H   0  0  0  0  0  0  0  0  0  0  0  0
    0.7306    1.5815    1.6954 H   0  0  0  0  0  0  0  0  0  0  0  0
   -0.2592    2.5697    0.6234 H   0  0  0  0  0  0  0  0  0  0  0  0
   -1.6209    0.8607   -1.0659 H   0  0  0  0  0  0  0  0  0  0  0  0
   -2.2266   -0.5843   -0.2439 H   0  0  0  0  0  0  0  0  0  0  0  0
    2.1091   -1.5311   -2.2416 H   0  0  0  0  0  0  0  0  0  0  0  0
    3.0142   -0.0214   -1.9058 H   0  0  0  0  0  0  0  0  0  0  0  0
    2.1953   -0.4627    1.3826 H   0  0  0  0  0  0  0  0  0  0  0  0
    1.3252   -1.9447    0.8933 H   0  0  0  0  0  0  0  0  0  0  0  0
    1.2756    0.2629    3.3627 H   0  0  0  0  0  0  0  0  0  0  0  0
   -0.7696    1.7039    3.3150 H   0  0  0  0  0  0  0  0  0  0  0  0
   -1.7214    0.4216    4.0642 H   0  0  0  0  0  0  0  0  0  0  0  0
  1 12  1  0  0  0  0
  1 13  1  0  0  0  0
  1 14  2  0  0  0  0
  2  3  1  0  0  0  0
  2 10  1  0  0  0  0
  2 16  1  0  0  0  0
  2 17  1  0  0  0  0
  3 10  1  0  0  0  0
  3 18  1  0  0  0  0
  3 19  1  0  0  0  0
  4  6  1  0  0  0  0
  4 11  1  0  0  0  0
  4 20  1  0  0  0  0
  4 21  1  0  0  0  0
  5  7  1  0  0  0  0
  5 11  1  0  0  0  0
  5 22  1  0  0  0  0
  5 23  1  0  0  0  0
  6 13  1  0  0  0  0
  6 24  1  0  0  0  0
  6 25  1  0  0  0  0
  7 13  1  0  0  0  0
  7 26  1  0  0  0  0
  7 27  1  0  0  0  0
  8 11  1  0  0  0  0
  8 15  1  0  0  0  0
  8 28  1  0  0  0  0
  8 29  1  0  0  0  0
  9 11  1  0  0  0  0
  9 15  1  0  0  0  0
  9 30  1  0  0  0  0
  9 31  1  0  0  0  0
 10 12  1  0  0  0  0
 10 32  1  0  0  0  0
 12 33  1  0  0  0  0
 12 34  1  0  0  0  0
M  END
$$$$
