
  -OEChem-05262117483D

 43 46  0     0  0  0  0  0  0999 V2000
   -3.5250   -4.6307   -4.3218 C   0  0  0  0  0  0  0  0  0  0  0  0
   -4.4093   -5.2511   -5.1796 C   0  0  0  0  0  0  0  0  0  0  0  0
   -4.8978   -6.9580   -3.5000 C   0  0  0  0  0  0  0  0  0  0  0  0
   -2.8300   -6.1303   -0.5017 C   0  0  0  0  0  0  0  0  0  0  0  0
   -3.9885   -6.3226   -2.6167 C   0  0  0  0  0  0  0  0  0  0  0  0
   -3.2874   -5.1446   -3.0184 C   0  0  0  0  0  0  0  0  0  0  0  0
   -3.7254   -6.8064   -1.3022 C   0  0  0  0  0  0  0  0  0  0  0  0
   -5.0828   -6.4121   -4.7462 C   0  0  0  0  0  0  0  0  0  0  0  0
   -2.1875   -4.9634   -1.0026 C   0  0  0  0  0  0  0  0  0  0  0  0
    0.6642    0.8638   -0.0001 C   0  0  0  0  0  0  0  0  0  0  0  0
    0.3776    0.4749   -2.3374 C   0  0  0  0  0  0  0  0  0  0  0  0
   -0.2798   -2.4573   -1.6401 C   0  0  0  0  0  0  0  0  0  0  0  0
   -0.0493   -2.1168    0.4348 C   0  0  0  0  0  0  0  0  0  0  0  0
    0.1423    2.2842   -0.1937 C   0  0  0  0  0  0  0  0  0  0  0  0
   -0.1387    1.9022   -2.4899 C   0  0  0  0  0  0  0  0  0  0  0  0
    0.5138   -1.4046   -0.8234 C   0  0  0  0  0  0  0  0  0  0  0  0
   -1.1717   -4.2620   -0.1210 C   0  0  0  0  0  0  0  0  0  0  0  0
   -2.3993   -4.4872   -2.2137 N   0  0  0  0  0  0  0  0  0  0  0  0
    0.0655   -0.0296   -0.9964 N   0  0  0  0  0  0  0  0  0  0  0  0
   -1.0097   -2.8561   -0.4133 N   0  0  0  0  0  0  0  0  0  0  0  0
    0.4214    2.7699   -1.5054 O   0  0  0  0  0  0  0  0  0  0  0  0
   -4.3971   -7.9287   -0.9122 O   0  0  0  0  0  0  0  0  0  0  0  0
   -5.9482   -7.0019   -5.6120 F   0  0  0  0  0  0  0  0  0  0  0  0
   -2.9894   -3.7339   -4.6172 H   0  0  0  0  0  0  0  0  0  0  0  0
   -4.6016   -4.8695   -6.1778 H   0  0  0  0  0  0  0  0  0  0  0  0
   -5.4337   -7.8516   -3.2002 H   0  0  0  0  0  0  0  0  0  0  0  0
   -2.6165   -6.4728    0.5094 H   0  0  0  0  0  0  0  0  0  0  0  0
    1.7691    0.8690   -0.0755 H   0  0  0  0  0  0  0  0  0  0  0  0
    0.3998    0.5200    1.0050 H   0  0  0  0  0  0  0  0  0  0  0  0
   -0.1025   -0.1612   -3.0872 H   0  0  0  0  0  0  0  0  0  0  0  0
    1.4681    0.4605   -2.5295 H   0  0  0  0  0  0  0  0  0  0  0  0
   -0.9319   -2.0971   -2.4373 H   0  0  0  0  0  0  0  0  0  0  0  0
    0.3674   -3.2517   -2.0409 H   0  0  0  0  0  0  0  0  0  0  0  0
    0.7068   -2.7601    0.9134 H   0  0  0  0  0  0  0  0  0  0  0  0
   -0.5233   -1.4893    1.1972 H   0  0  0  0  0  0  0  0  0  0  0  0
   -0.9429    2.3033   -0.0103 H   0  0  0  0  0  0  0  0  0  0  0  0
    0.6314    2.9726    0.5008 H   0  0  0  0  0  0  0  0  0  0  0  0
    0.1471    2.3134   -3.4617 H   0  0  0  0  0  0  0  0  0  0  0  0
   -1.2365    1.9046   -2.4099 H   0  0  0  0  0  0  0  0  0  0  0  0
    1.6100   -1.4842   -0.9281 H   0  0  0  0  0  0  0  0  0  0  0  0
   -1.4868   -4.3562    0.9251 H   0  0  0  0  0  0  0  0  0  0  0  0
   -0.2130   -4.8195   -0.2066 H   0  0  0  0  0  0  0  0  0  0  0  0
   -4.1401   -8.1570   -0.0039 H   0  0  0  0  0  0  0  0  0  0  0  0
  1  2  1  0  0  0  0
  1  6  2  0  0  0  0
  1 24  1  0  0  0  0
  2  8  2  0  0  0  0
  2 25  1  0  0  0  0
  3  5  2  0  0  0  0
  3  8  1  0  0  0  0
  3 26  1  0  0  0  0
  4  7  2  0  0  0  0
  4  9  1  0  0  0  0
  4 27  1  0  0  0  0
  5  6  1  0  0  0  0
  5  7  1  0  0  0  0
  6 18  1  0  0  0  0
  7 22  1  0  0  0  0
  8 23  1  0  0  0  0
  9 17  1  0  0  0  0
  9 18  2  0  0  0  0
 10 14  1  0  0  0  0
 10 19  1  0  0  0  0
 10 28  1  0  0  0  0
 10 29  1  0  0  0  0
 11 15  1  0  0  0  0
 11 19  1  0  0  0  0
 11 30  1  0  0  0  0
 11 31  1  0  0  0  0
 12 16  1  0  0  0  0
 12 20  1  0  0  0  0
 12 32  1  0  0  0  0
 12 33  1  0  0  0  0
 13 16  1  0  0  0  0
 13 20  1  0  0  0  0
 13 34  1  0  0  0  0
 13 35  1  0  0  0  0
 14 21  1  0  0  0  0
 14 36  1  0  0  0  0
 14 37  1  0  0  0  0
 15 21  1  0  0  0  0
 15 38  1  0  0  0  0
 15 39  1  0  0  0  0
 16 19  1  0  0  0  0
 16 40  1  0  0  0  0
 17 20  1  0  0  0  0
 17 41  1  0  0  0  0
 17 42  1  0  0  0  0
 22 43  1  0  0  0  0
M  END
$$$$
