
  -OEChem-05262117483D

 43 46  0     0  0  0  0  0  0999 V2000
   -1.1016   -4.4694    5.7431 C   0  0  0  0  0  0  0  0  0  0  0  0
   -1.9850   -4.3874    6.7992 C   0  0  0  0  0  0  0  0  0  0  0  0
   -3.7416   -3.5617    5.3137 C   0  0  0  0  0  0  0  0  0  0  0  0
   -2.2618   -3.3943    1.8869 C   0  0  0  0  0  0  0  0  0  0  0  0
   -2.8364   -3.6462    4.2251 C   0  0  0  0  0  0  0  0  0  0  0  0
   -1.4975   -4.1037    4.4280 C   0  0  0  0  0  0  0  0  0  0  0  0
   -3.1960   -3.2855    2.8938 C   0  0  0  0  0  0  0  0  0  0  0  0
   -3.2979   -3.9309    6.5594 C   0  0  0  0  0  0  0  0  0  0  0  0
   -0.9588   -3.8639    2.2025 C   0  0  0  0  0  0  0  0  0  0  0  0
    0.1807    0.6678   -1.6945 C   0  0  0  0  0  0  0  0  0  0  0  0
    0.7495   -0.9437   -3.3604 C   0  0  0  0  0  0  0  0  0  0  0  0
    0.8093   -3.0550   -1.1031 C   0  0  0  0  0  0  0  0  0  0  0  0
    0.2996   -1.6247    0.3714 C   0  0  0  0  0  0  0  0  0  0  0  0
   -0.6565    1.4120   -2.7301 C   0  0  0  0  0  0  0  0  0  0  0  0
   -0.0977   -0.1710   -4.3667 C   0  0  0  0  0  0  0  0  0  0  0  0
    0.9743   -1.5136   -1.0211 C   0  0  0  0  0  0  0  0  0  0  0  0
    0.0628   -4.0153    1.0918 C   0  0  0  0  0  0  0  0  0  0  0  0
   -0.5770   -4.2012    3.4211 N   0  0  0  0  0  0  0  0  0  0  0  0
    0.2077   -0.7654   -2.0084 N   0  0  0  0  0  0  0  0  0  0  0  0
   -0.1082   -3.0139    0.0564 N   0  0  0  0  0  0  0  0  0  0  0  0
   -0.1508    1.2183   -4.0493 O   0  0  0  0  0  0  0  0  0  0  0  0
   -4.4727   -2.8439    2.6970 O   0  0  0  0  0  0  0  0  0  0  0  0
   -4.1464   -3.8599    7.6189 F   0  0  0  0  0  0  0  0  0  0  0  0
   -0.0827   -4.8154    5.8867 H   0  0  0  0  0  0  0  0  0  0  0  0
   -1.6973   -4.6643    7.8090 H   0  0  0  0  0  0  0  0  0  0  0  0
   -4.7584   -3.2153    5.1664 H   0  0  0  0  0  0  0  0  0  0  0  0
   -2.4824   -3.1233    0.8573 H   0  0  0  0  0  0  0  0  0  0  0  0
    1.2017    1.0950   -1.6776 H   0  0  0  0  0  0  0  0  0  0  0  0
   -0.2600    0.8175   -0.7040 H   0  0  0  0  0  0  0  0  0  0  0  0
    0.7355   -2.0060   -3.6231 H   0  0  0  0  0  0  0  0  0  0  0  0
    1.7978   -0.5938   -3.4229 H   0  0  0  0  0  0  0  0  0  0  0  0
    0.3578   -3.4650   -2.0123 H   0  0  0  0  0  0  0  0  0  0  0  0
    1.7551   -3.5795   -0.8985 H   0  0  0  0  0  0  0  0  0  0  0  0
    1.0262   -1.5594    1.1954 H   0  0  0  0  0  0  0  0  0  0  0  0
   -0.5377   -0.9512    0.5787 H   0  0  0  0  0  0  0  0  0  0  0  0
   -1.7002    1.0662   -2.6745 H   0  0  0  0  0  0  0  0  0  0  0  0
   -0.6300    2.4890   -2.5442 H   0  0  0  0  0  0  0  0  0  0  0  0
    0.3343   -0.2425   -5.3684 H   0  0  0  0  0  0  0  0  0  0  0  0
   -1.1155   -0.5900   -4.3866 H   0  0  0  0  0  0  0  0  0  0  0  0
    2.0242   -1.1764   -0.9865 H   0  0  0  0  0  0  0  0  0  0  0  0
    1.0663   -3.9997    1.5509 H   0  0  0  0  0  0  0  0  0  0  0  0
   -0.0651   -5.0041    0.6305 H   0  0  0  0  0  0  0  0  0  0  0  0
   -4.5939   -2.6367    1.7557 H   0  0  0  0  0  0  0  0  0  0  0  0
  1  2  1  0  0  0  0
  1  6  2  0  0  0  0
  1 24  1  0  0  0  0
  2  8  2  0  0  0  0
  2 25  1  0  0  0  0
  3  5  2  0  0  0  0
  3  8  1  0  0  0  0
  3 26  1  0  0  0  0
  4  7  2  0  0  0  0
  4  9  1  0  0  0  0
  4 27  1  0  0  0  0
  5  6  1  0  0  0  0
  5  7  1  0  0  0  0
  6 18  1  0  0  0  0
  7 22  1  0  0  0  0
  8 23  1  0  0  0  0
  9 17  1  0  0  0  0
  9 18  2  0  0  0  0
 10 14  1  0  0  0  0
 10 19  1  0  0  0  0
 10 28  1  0  0  0  0
 10 29  1  0  0  0  0
 11 15  1  0  0  0  0
 11 19  1  0  0  0  0
 11 30  1  0  0  0  0
 11 31  1  0  0  0  0
 12 16  1  0  0  0  0
 12 20  1  0  0  0  0
 12 32  1  0  0  0  0
 12 33  1  0  0  0  0
 13 16  1  0  0  0  0
 13 20  1  0  0  0  0
 13 34  1  0  0  0  0
 13 35  1  0  0  0  0
 14 21  1  0  0  0  0
 14 36  1  0  0  0  0
 14 37  1  0  0  0  0
 15 21  1  0  0  0  0
 15 38  1  0  0  0  0
 15 39  1  0  0  0  0
 16 19  1  0  0  0  0
 16 40  1  0  0  0  0
 17 20  1  0  0  0  0
 17 41  1  0  0  0  0
 17 42  1  0  0  0  0
 22 43  1  0  0  0  0
M  END
$$$$
