
  -OEChem-05262117483D

 50 52  0     1  0  0  0  0  0999 V2000
   -0.7984    4.9470   -0.0322 C   0  0  0  0  0  0  0  0  0  0  0  0
   -2.1026    5.0587   -2.0516 C   0  0  0  0  0  0  0  0  0  0  0  0
   -1.9625    4.8298    0.7318 C   0  0  0  0  0  0  0  0  0  0  0  0
   -3.2764    4.9455   -1.3044 C   0  0  0  0  0  0  0  0  0  0  0  0
   -0.8427    5.0566   -1.4292 C   0  0  0  0  0  0  0  0  0  0  0  0
   -3.1978    4.8271    0.0842 C   0  0  0  0  0  0  0  0  0  0  0  0
   -3.7434    2.1284   -7.2079 C   0  0  0  0  0  0  0  0  0  0  0  0
   -1.4208    2.6158   -6.3803 C   0  0  0  0  0  0  0  0  0  0  0  0
   -3.1297    2.0085   -4.7822 C   0  0  0  0  0  0  0  0  0  0  0  0
    0.3221    5.8836   -3.5495 C   0  0  0  0  0  0  0  0  0  0  0  0
    0.4528    5.1479   -2.2145 C   0  0  2  0  0  0  0  0  0  0  0  0
   -2.4639    2.9368   -7.4566 C   0  0  1  0  0  0  0  0  0  0  0  0
   -4.2573    2.3099   -5.7743 C   0  0  2  0  0  0  0  0  0  0  0  0
    1.0050    3.7851   -2.7300 C   0  0  2  0  0  0  0  0  0  0  0  0
    0.2509    3.5930   -4.0745 C   0  0  1  0  0  0  0  0  0  0  0  0
   -1.8976    2.6930   -8.8586 C   0  0  0  0  0  0  0  0  0  0  0  0
   -5.4874    1.4424   -5.4915 C   0  0  0  0  0  0  0  0  0  0  0  0
    0.9729    2.6205   -1.7405 C   0  0  0  0  0  0  0  0  0  0  0  0
   -0.9567    2.6430   -3.9876 C   0  0  0  0  0  0  0  0  0  0  0  0
   -1.9499    2.8347   -5.0350 N   0  0  0  0  0  0  0  0  0  0  0  0
   -0.1602    4.9126   -4.4836 O   0  0  0  0  0  0  0  0  0  0  0  0
   -4.6738    4.6752    1.0290 Cl  0  0  0  0  0  0  0  0  0  0  0  0
    0.1635    4.9514    0.4760 H   0  0  0  0  0  0  0  0  0  0  0  0
   -2.1734    5.1240   -3.1335 H   0  0  0  0  0  0  0  0  0  0  0  0
   -1.9117    4.7448    1.8129 H   0  0  0  0  0  0  0  0  0  0  0  0
   -4.2438    4.9448   -1.7974 H   0  0  0  0  0  0  0  0  0  0  0  0
   -4.5197    2.4167   -7.9282 H   0  0  0  0  0  0  0  0  0  0  0  0
   -3.5350    1.0616   -7.3815 H   0  0  0  0  0  0  0  0  0  0  0  0
   -1.0758    1.5671   -6.5080 H   0  0  0  0  0  0  0  0  0  0  0  0
   -0.5533    3.2648   -6.5242 H   0  0  0  0  0  0  0  0  0  0  0  0
   -3.4740    2.2076   -3.7605 H   0  0  0  0  0  0  0  0  0  0  0  0
   -2.8841    0.9262   -4.8335 H   0  0  0  0  0  0  0  0  0  0  0  0
   -0.3893    6.7136   -3.5314 H   0  0  0  0  0  0  0  0  0  0  0  0
    1.3013    6.2694   -3.8706 H   0  0  0  0  0  0  0  0  0  0  0  0
    1.2078    5.6257   -1.5817 H   0  0  0  0  0  0  0  0  0  0  0  0
   -2.7074    4.0024   -7.3548 H   0  0  0  0  0  0  0  0  0  0  0  0
   -4.5305    3.3652   -5.6410 H   0  0  0  0  0  0  0  0  0  0  0  0
    2.0558    3.9718   -2.9829 H   0  0  0  0  0  0  0  0  0  0  0  0
    0.9484    3.2141   -4.8318 H   0  0  0  0  0  0  0  0  0  0  0  0
   -1.6282    1.6388   -8.9975 H   0  0  0  0  0  0  0  0  0  0  0  0
   -0.9989    3.2946   -9.0371 H   0  0  0  0  0  0  0  0  0  0  0  0
   -2.6318    2.9519   -9.6295 H   0  0  0  0  0  0  0  0  0  0  0  0
   -5.2523    0.3769   -5.6018 H   0  0  0  0  0  0  0  0  0  0  0  0
   -6.3008    1.6763   -6.1873 H   0  0  0  0  0  0  0  0  0  0  0  0
   -5.8628    1.5981   -4.4734 H   0  0  0  0  0  0  0  0  0  0  0  0
   -0.0358    2.4002   -1.3849 H   0  0  0  0  0  0  0  0  0  0  0  0
    1.5854    2.8537   -0.8630 H   0  0  0  0  0  0  0  0  0  0  0  0
    1.3808    1.7111   -2.1943 H   0  0  0  0  0  0  0  0  0  0  0  0
   -1.4695    2.7849   -3.0346 H   0  0  0  0  0  0  0  0  0  0  0  0
   -0.5572    1.6079   -3.9791 H   0  0  0  0  0  0  0  0  0  0  0  0
  1  3  1  0  0  0  0
  1  5  2  0  0  0  0
  1 23  1  0  0  0  0
  2  4  2  0  0  0  0
  2  5  1  0  0  0  0
  2 24  1  0  0  0  0
  3  6  2  0  0  0  0
  3 25  1  0  0  0  0
  4  6  1  0  0  0  0
  4 26  1  0  0  0  0
  5 11  1  0  0  0  0
  6 22  1  0  0  0  0
  7 12  1  0  0  0  0
  7 13  1  0  0  0  0
  7 27  1  0  0  0  0
  7 28  1  0  0  0  0
  8 12  1  0  0  0  0
  8 20  1  0  0  0  0
  8 29  1  0  0  0  0
  8 30  1  0  0  0  0
  9 13  1  0  0  0  0
  9 20  1  0  0  0  0
  9 31  1  0  0  0  0
  9 32  1  0  0  0  0
 10 11  1  0  0  0  0
 10 21  1  0  0  0  0
 10 33  1  0  0  0  0
 10 34  1  0  0  0  0
 11 14  1  0  0  0  0
 11 35  1  0  0  0  0
 12 16  1  0  0  0  0
 12 36  1  0  0  0  0
 13 17  1  0  0  0  0
 13 37  1  0  0  0  0
 14 15  1  0  0  0  0
 14 18  1  0  0  0  0
 14 38  1  0  0  0  0
 15 19  1  0  0  0  0
 15 21  1  0  0  0  0
 15 39  1  0  0  0  0
 16 40  1  0  0  0  0
 16 41  1  0  0  0  0
 16 42  1  0  0  0  0
 17 43  1  0  0  0  0
 17 44  1  0  0  0  0
 17 45  1  0  0  0  0
 18 46  1  0  0  0  0
 18 47  1  0  0  0  0
 18 48  1  0  0  0  0
 19 20  1  0  0  0  0
 19 49  1  0  0  0  0
 19 50  1  0  0  0  0
M  END
$$$$
