
  -OEChem-05262117483D

 39 41  0     1  0  0  0  0  0999 V2000
    0.6241   -0.5178   -0.7911 C   0  0  0  0  0  0  0  0  0  0  0  0
   -1.8887   -1.1963   -1.8480 C   0  0  0  0  0  0  0  0  0  0  0  0
   -0.5369   -0.0961   -0.1089 C   0  0  0  0  0  0  0  0  0  0  0  0
    0.5363   -1.2362   -1.9780 C   0  0  0  0  0  0  0  0  0  0  0  0
   -0.7188   -1.5733   -2.5072 C   0  0  0  0  0  0  0  0  0  0  0  0
   -1.7806   -0.4644   -0.6612 C   0  0  0  0  0  0  0  0  0  0  0  0
    0.3032    1.7460    1.4019 C   0  0  0  0  0  0  0  0  0  0  0  0
   -0.4529    0.6588    1.1566 C   0  0  0  0  0  0  0  0  0  0  0  0
   -0.7847   -3.9070   -3.5968 C   0  0  0  0  0  0  0  0  0  0  0  0
    1.6426   -1.7853   -2.8547 C   0  0  0  0  0  0  0  0  0  0  0  0
    1.1323    2.4813    0.3736 C   0  0  0  0  0  0  0  0  0  0  0  0
    0.3014    2.3930    2.7684 C   0  0  0  0  0  0  0  0  0  0  0  0
    0.9107   -2.1046   -4.1806 C   0  0  0  0  0  0  0  0  0  0  0  0
    0.7304    3.9703    0.3077 C   0  0  0  0  0  0  0  0  0  0  0  0
   -0.1008    3.8784    2.6937 C   0  0  0  0  0  0  0  0  0  0  0  0
    0.7736    4.6371    1.6877 C   0  0  0  0  0  0  0  0  0  0  0  0
   -0.5655   -2.3925   -3.7717 C   0  0  2  0  0  0  0  0  0  0  0  0
   -0.7297   -4.6757   -4.5298 O   0  0  0  0  0  0  0  0  0  0  0  0
   -1.0241   -4.3629   -2.3399 O   0  0  0  0  0  0  0  0  0  0  0  0
   -3.2686    0.0303    0.1363 Cl  0  0  0  0  0  0  0  0  0  0  0  0
    1.5925   -0.2820   -0.3590 H   0  0  0  0  0  0  0  0  0  0  0  0
   -2.8695   -1.4483   -2.2416 H   0  0  0  0  0  0  0  0  0  0  0  0
   -1.0926    0.2942    1.9590 H   0  0  0  0  0  0  0  0  0  0  0  0
    2.4677   -1.0799   -2.9904 H   0  0  0  0  0  0  0  0  0  0  0  0
    2.0658   -2.6942   -2.4076 H   0  0  0  0  0  0  0  0  0  0  0  0
    2.1941    2.4164    0.6540 H   0  0  0  0  0  0  0  0  0  0  0  0
    1.0329    2.0306   -0.6158 H   0  0  0  0  0  0  0  0  0  0  0  0
   -0.3607    1.8485    3.4491 H   0  0  0  0  0  0  0  0  0  0  0  0
    1.3164    2.3290    3.1888 H   0  0  0  0  0  0  0  0  0  0  0  0
    0.9230   -1.2206   -4.8251 H   0  0  0  0  0  0  0  0  0  0  0  0
    1.3492   -2.9342   -4.7377 H   0  0  0  0  0  0  0  0  0  0  0  0
    1.3911    4.4941   -0.3928 H   0  0  0  0  0  0  0  0  0  0  0  0
   -0.2864    4.0420   -0.0991 H   0  0  0  0  0  0  0  0  0  0  0  0
   -1.1528    3.9477    2.3884 H   0  0  0  0  0  0  0  0  0  0  0  0
   -0.0252    4.3328    3.6883 H   0  0  0  0  0  0  0  0  0  0  0  0
    0.4480    5.6811    1.6128 H   0  0  0  0  0  0  0  0  0  0  0  0
    1.8110    4.6562    2.0503 H   0  0  0  0  0  0  0  0  0  0  0  0
   -1.2577   -2.0926   -4.5631 H   0  0  0  0  0  0  0  0  0  0  0  0
   -1.0503   -3.6069   -1.7230 H   0  0  0  0  0  0  0  0  0  0  0  0
  1  3  1  0  0  0  0
  1  4  2  0  0  0  0
  1 21  1  0  0  0  0
  2  5  2  0  0  0  0
  2  6  1  0  0  0  0
  2 22  1  0  0  0  0
  3  6  2  0  0  0  0
  3  8  1  0  0  0  0
  4  5  1  0  0  0  0
  4 10  1  0  0  0  0
  5 17  1  0  0  0  0
  6 20  1  0  0  0  0
  7  8  2  0  0  0  0
  7 11  1  0  0  0  0
  7 12  1  0  0  0  0
  8 23  1  0  0  0  0
  9 17  1  0  0  0  0
  9 18  2  0  0  0  0
  9 19  1  0  0  0  0
 10 13  1  0  0  0  0
 10 24  1  0  0  0  0
 10 25  1  0  0  0  0
 11 14  1  0  0  0  0
 11 26  1  0  0  0  0
 11 27  1  0  0  0  0
 12 15  1  0  0  0  0
 12 28  1  0  0  0  0
 12 29  1  0  0  0  0
 13 17  1  0  0  0  0
 13 30  1  0  0  0  0
 13 31  1  0  0  0  0
 14 16  1  0  0  0  0
 14 32  1  0  0  0  0
 14 33  1  0  0  0  0
 15 16  1  0  0  0  0
 15 34  1  0  0  0  0
 15 35  1  0  0  0  0
 16 36  1  0  0  0  0
 16 37  1  0  0  0  0
 17 38  1  0  0  0  0
 19 39  1  0  0  0  0
M  END
$$$$
