
  -OEChem-05262117483D

 29 30  0     1  0  0  0  0  0999 V2000
    1.5307    4.0496    3.7006 C   0  0  0  0  0  0  0  0  0  0  0  0
    0.2219    4.5295    3.7860 C   0  0  0  0  0  0  0  0  0  0  0  0
    1.9360    3.3455    2.5657 C   0  0  0  0  0  0  0  0  0  0  0  0
   -0.6736    4.3045    2.7376 C   0  0  0  0  0  0  0  0  0  0  0  0
    1.0623    3.1130    1.4929 C   0  0  0  0  0  0  0  0  0  0  0  0
   -0.2475    3.6056    1.6083 C   0  0  0  0  0  0  0  0  0  0  0  0
    0.7340    0.0898    0.5940 C   0  0  0  0  0  0  0  0  0  0  0  0
    0.2985   -2.0789    1.2682 C   0  0  0  0  0  0  0  0  0  0  0  0
    1.3466   -1.4139    2.1787 C   0  0  0  0  0  0  0  0  0  0  0  0
    1.7870    3.2728   -0.9604 C   0  0  0  0  0  0  0  0  0  0  0  0
    1.6036    2.3842    0.2733 C   0  0  2  0  0  0  0  0  0  0  0  0
   -0.1508   -0.9095    0.4922 N   0  0  0  0  0  0  0  0  0  0  0  0
    0.7540    1.2127   -0.0947 N   0  3  0  0  0  0  0  0  0  0  0  0
    1.6697   -0.1485    1.4961 O   0  0  0  0  0  0  0  0  0  0  0  0
   -1.4402    3.3656    0.3212 Cl  0  0  0  0  0  0  0  0  0  0  0  0
    2.2318    4.2203    4.5118 H   0  0  0  0  0  0  0  0  0  0  0  0
   -0.1083    5.0787    4.6627 H   0  0  0  0  0  0  0  0  0  0  0  0
    2.9548    2.9706    2.5026 H   0  0  0  0  0  0  0  0  0  0  0  0
   -1.6931    4.6726    2.7902 H   0  0  0  0  0  0  0  0  0  0  0  0
    0.7301   -2.8381    0.6099 H   0  0  0  0  0  0  0  0  0  0  0  0
   -0.5278   -2.5102    1.8346 H   0  0  0  0  0  0  0  0  0  0  0  0
    0.9540   -1.1482    3.1609 H   0  0  0  0  0  0  0  0  0  0  0  0
    2.2759   -1.9716    2.2739 H   0  0  0  0  0  0  0  0  0  0  0  0
    0.8417    3.7041   -1.2968 H   0  0  0  0  0  0  0  0  0  0  0  0
    2.2354    2.7041   -1.7801 H   0  0  0  0  0  0  0  0  0  0  0  0
    2.4569    4.0961   -0.7034 H   0  0  0  0  0  0  0  0  0  0  0  0
    2.5746    1.9666    0.5418 H   0  0  0  0  0  0  0  0  0  0  0  0
   -0.8680   -0.9502   -0.2224 H   0  0  0  0  0  0  0  0  0  0  0  0
   -0.0306    1.3978   -0.7117 H   0  0  0  0  0  0  0  0  0  0  0  0
  1  2  1  0  0  0  0
  1  3  2  0  0  0  0
  1 16  1  0  0  0  0
  2  4  2  0  0  0  0
  2 17  1  0  0  0  0
  3  5  1  0  0  0  0
  3 18  1  0  0  0  0
  4  6  1  0  0  0  0
  4 19  1  0  0  0  0
  5  6  2  0  0  0  0
  5 11  1  0  0  0  0
  6 15  1  0  0  0  0
  7 12  1  0  0  0  0
  7 13  2  0  0  0  0
  7 14  1  0  0  0  0
  8  9  1  0  0  0  0
  8 12  1  0  0  0  0
  8 20  1  0  0  0  0
  8 21  1  0  0  0  0
  9 14  1  0  0  0  0
  9 22  1  0  0  0  0
  9 23  1  0  0  0  0
 10 11  1  0  0  0  0
 10 24  1  0  0  0  0
 10 25  1  0  0  0  0
 10 26  1  0  0  0  0
 11 13  1  0  0  0  0
 11 27  1  0  0  0  0
 12 28  1  0  0  0  0
 13 29  1  0  0  0  0
M  CHG  1  13   1
M  END
$$$$
