
  -OEChem-05262117483D

 39 41  0     1  0  0  0  0  0999 V2000
    1.7617    1.8292   -0.0461 C   0  0  0  0  0  0  0  0  0  0  0  0
    2.8677    2.4258    2.4655 C   0  0  0  0  0  0  0  0  0  0  0  0
    1.3836    1.0469    1.0660 C   0  0  0  0  0  0  0  0  0  0  0  0
    2.6822    2.8626    0.0837 C   0  0  0  0  0  0  0  0  0  0  0  0
    3.2351    3.1606    1.3383 C   0  0  0  0  0  0  0  0  0  0  0  0
    1.9497    1.3816    2.3130 C   0  0  0  0  0  0  0  0  0  0  0  0
    0.3825   -1.0217    0.0157 C   0  0  0  0  0  0  0  0  0  0  0  0
    0.3951   -0.0417    0.9387 C   0  0  0  0  0  0  0  0  0  0  0  0
    3.5616    5.6836    1.7422 C   0  0  0  0  0  0  0  0  0  0  0  0
    3.2110    3.8183   -0.9656 C   0  0  0  0  0  0  0  0  0  0  0  0
    1.4275   -1.2446   -1.0512 C   0  0  0  0  0  0  0  0  0  0  0  0
   -0.7531   -2.0156   -0.0515 C   0  0  0  0  0  0  0  0  0  0  0  0
    4.4573    4.4316   -0.2825 C   0  0  0  0  0  0  0  0  0  0  0  0
    0.7894   -1.2071   -2.4548 C   0  0  0  0  0  0  0  0  0  0  0  0
   -1.4095   -1.9855   -1.4479 C   0  0  0  0  0  0  0  0  0  0  0  0
   -0.3740   -2.2040   -2.5602 C   0  0  0  0  0  0  0  0  0  0  0  0
    4.1620    4.3545    1.2453 C   0  0  2  0  0  0  0  0  0  0  0  0
    4.1918    6.7167    1.7303 O   0  0  0  0  0  0  0  0  0  0  0  0
    2.2779    5.6631    2.1855 O   0  0  0  0  0  0  0  0  0  0  0  0
    1.5247    0.4486    3.7423 Cl  0  0  0  0  0  0  0  0  0  0  0  0
    1.3015    1.6195   -1.0074 H   0  0  0  0  0  0  0  0  0  0  0  0
    3.2848    2.6409    3.4453 H   0  0  0  0  0  0  0  0  0  0  0  0
   -0.3901   -0.0473    1.6933 H   0  0  0  0  0  0  0  0  0  0  0  0
    3.4519    3.3223   -1.9105 H   0  0  0  0  0  0  0  0  0  0  0  0
    2.4625    4.5899   -1.1882 H   0  0  0  0  0  0  0  0  0  0  0  0
    2.2514   -0.5327   -0.9744 H   0  0  0  0  0  0  0  0  0  0  0  0
    1.8579   -2.2449   -0.8966 H   0  0  0  0  0  0  0  0  0  0  0  0
   -0.3607   -3.0269    0.1297 H   0  0  0  0  0  0  0  0  0  0  0  0
   -1.4956   -1.8115    0.7263 H   0  0  0  0  0  0  0  0  0  0  0  0
    5.3321    3.8103   -0.4960 H   0  0  0  0  0  0  0  0  0  0  0  0
    4.6801    5.4504   -0.6038 H   0  0  0  0  0  0  0  0  0  0  0  0
    0.4196   -0.1926   -2.6555 H   0  0  0  0  0  0  0  0  0  0  0  0
    1.5489   -1.4256   -3.2145 H   0  0  0  0  0  0  0  0  0  0  0  0
   -2.1953   -2.7476   -1.5047 H   0  0  0  0  0  0  0  0  0  0  0  0
   -1.8974   -1.0123   -1.5886 H   0  0  0  0  0  0  0  0  0  0  0  0
    0.0232   -3.2258   -2.4870 H   0  0  0  0  0  0  0  0  0  0  0  0
   -0.8529   -2.1236   -3.5429 H   0  0  0  0  0  0  0  0  0  0  0  0
    5.0848    4.2259    1.8178 H   0  0  0  0  0  0  0  0  0  0  0  0
    1.9338    4.7512    2.1335 H   0  0  0  0  0  0  0  0  0  0  0  0
  1  3  1  0  0  0  0
  1  4  2  0  0  0  0
  1 21  1  0  0  0  0
  2  5  2  0  0  0  0
  2  6  1  0  0  0  0
  2 22  1  0  0  0  0
  3  6  2  0  0  0  0
  3  8  1  0  0  0  0
  4  5  1  0  0  0  0
  4 10  1  0  0  0  0
  5 17  1  0  0  0  0
  6 20  1  0  0  0  0
  7  8  2  0  0  0  0
  7 11  1  0  0  0  0
  7 12  1  0  0  0  0
  8 23  1  0  0  0  0
  9 17  1  0  0  0  0
  9 18  2  0  0  0  0
  9 19  1  0  0  0  0
 10 13  1  0  0  0  0
 10 24  1  0  0  0  0
 10 25  1  0  0  0  0
 11 14  1  0  0  0  0
 11 26  1  0  0  0  0
 11 27  1  0  0  0  0
 12 15  1  0  0  0  0
 12 28  1  0  0  0  0
 12 29  1  0  0  0  0
 13 17  1  0  0  0  0
 13 30  1  0  0  0  0
 13 31  1  0  0  0  0
 14 16  1  0  0  0  0
 14 32  1  0  0  0  0
 14 33  1  0  0  0  0
 15 16  1  0  0  0  0
 15 34  1  0  0  0  0
 15 35  1  0  0  0  0
 16 36  1  0  0  0  0
 16 37  1  0  0  0  0
 17 38  1  0  0  0  0
 19 39  1  0  0  0  0
M  END
$$$$
