
  -OEChem-05262117483D

 18 18  0     1  0  0  0  0  0999 V2000
    1.9019   -0.1535    0.1132 C   0  0  0  0  0  0  0  0  0  0  0  0
   -0.1290    1.1565    1.8263 C   0  0  0  0  0  0  0  0  0  0  0  0
   -0.6284    0.7936    3.9095 C   0  0  0  0  0  0  0  0  0  0  0  0
   -1.5268    1.1677   -0.2728 C   0  0  0  0  0  0  0  0  0  0  0  0
   -0.1210    1.1320    0.3146 C   0  0  2  0  0  0  0  0  0  0  0  0
    3.0473   -0.1085    0.3456 N   0  0  0  0  0  0  0  0  0  0  0  0
   -1.0862    0.6922    2.5718 N   0  0  0  0  0  0  0  0  0  0  0  0
    0.9605    1.6463    2.5252 N   0  0  0  0  0  0  0  0  0  0  0  0
    0.7273    1.2286    3.8530 N   0  0  0  0  0  0  0  0  0  0  0  0
    0.5872   -0.0913   -0.1644 N   0  0  0  0  0  0  0  0  0  0  0  0
   -1.2380    0.5680    4.9347 O   0  0  0  0  0  0  0  0  0  0  0  0
   -2.1223    0.3282    0.0945 H   0  0  0  0  0  0  0  0  0  0  0  0
   -2.0341    2.0867    0.0291 H   0  0  0  0  0  0  0  0  0  0  0  0
   -1.4690    1.1297   -1.3631 H   0  0  0  0  0  0  0  0  0  0  0  0
    0.4643    1.9798   -0.0519 H   0  0  0  0  0  0  0  0  0  0  0  0
    1.8911    1.4138    2.1719 H   0  0  0  0  0  0  0  0  0  0  0  0
    1.0107    1.8996    4.5617 H   0  0  0  0  0  0  0  0  0  0  0  0
    0.0832   -0.9535    0.0330 H   0  0  0  0  0  0  0  0  0  0  0  0
  1  6  3  0  0  0  0
  1 10  1  0  0  0  0
  2  5  1  0  0  0  0
  2  7  2  0  0  0  0
  2  8  1  0  0  0  0
  3  7  1  0  0  0  0
  3  9  1  0  0  0  0
  3 11  2  0  0  0  0
  4  5  1  0  0  0  0
  4 12  1  0  0  0  0
  4 13  1  0  0  0  0
  4 14  1  0  0  0  0
  5 10  1  0  0  0  0
  5 15  1  0  0  0  0
  8  9  1  0  0  0  0
  8 16  1  0  0  0  0
  9 17  1  0  0  0  0
 10 18  1  0  0  0  0
M  END
$$$$
