
  -OEChem-05262117483D

 20 21  0     1  0  0  0  0  0999 V2000
    3.3773   -1.6697    0.9512 C   0  0  0  0  0  0  0  0  0  0  0  0
    3.8902   -2.1736   -0.2006 C   0  0  0  0  0  0  0  0  0  0  0  0
    1.6254   -1.2412   -0.4836 C   0  0  0  0  0  0  0  0  0  0  0  0
   -0.5944    1.0532    0.0007 C   0  0  0  0  0  0  0  0  0  0  0  0
    0.3527    0.8730   -1.2013 C   0  0  0  0  0  0  0  0  0  0  0  0
    0.2854   -0.6670   -0.8616 C   0  0  1  0  0  0  0  0  0  0  0  0
   -0.4603   -1.5252   -1.8814 C   0  0  0  0  0  0  0  0  0  0  0  0
    2.1060   -1.1559    0.7566 N   0  3  0  0  0  0  0  0  0  0  0  0
   -0.4651   -0.3103    0.3664 N   0  0  0  0  0  0  0  0  0  0  0  0
   -1.2375    1.9472    0.4724 O   0  0  0  0  0  0  0  0  0  0  0  0
    2.7605   -1.9976   -1.5112 S   0  0  0  0  0  0  0  0  0  0  0  0
    3.8339   -1.6422    1.9322 H   0  0  0  0  0  0  0  0  0  0  0  0
    4.8536   -2.6424   -0.3531 H   0  0  0  0  0  0  0  0  0  0  0  0
   -0.0901    1.1374   -2.1629 H   0  0  0  0  0  0  0  0  0  0  0  0
    1.3271    1.3542   -1.0957 H   0  0  0  0  0  0  0  0  0  0  0  0
   -1.4176   -1.0554   -2.1194 H   0  0  0  0  0  0  0  0  0  0  0  0
   -0.6510   -2.5295   -1.4921 H   0  0  0  0  0  0  0  0  0  0  0  0
    0.1080   -1.6157   -2.8126 H   0  0  0  0  0  0  0  0  0  0  0  0
    1.5200   -0.7355    1.4835 H   0  0  0  0  0  0  0  0  0  0  0  0
   -1.2203   -0.8686    0.7655 H   0  0  0  0  0  0  0  0  0  0  0  0
  1  2  2  0  0  0  0
  1  8  1  0  0  0  0
  1 12  1  0  0  0  0
  2 11  1  0  0  0  0
  2 13  1  0  0  0  0
  3  6  1  0  0  0  0
  3  8  2  0  0  0  0
  3 11  1  0  0  0  0
  4  5  1  0  0  0  0
  4  9  1  0  0  0  0
  4 10  2  0  0  0  0
  5  6  1  0  0  0  0
  5 14  1  0  0  0  0
  5 15  1  0  0  0  0
  6  7  1  0  0  0  0
  6  9  1  0  0  0  0
  7 16  1  0  0  0  0
  7 17  1  0  0  0  0
  7 18  1  0  0  0  0
  8 19  1  0  0  0  0
  9 20  1  0  0  0  0
M  CHG  1   8   1
M  END
$$$$
