30
1 1 C10H16N3O
C                    -0.682464973430     2.557183178504     0.866737162563
C                    -0.396639968037     3.834885077987     1.278200013991
C                     0.330764961959     1.868312065138     0.163368101780
C                     0.887411221874     4.359478994875     0.965130113528
C                    -1.095635416216    -0.109863766608    -0.864547035674
C                    -0.513092874643    -0.629342079775     0.423189836467
C                     0.206063267451     0.464989883011    -0.349287455525
C                     1.146392141599    -2.153228743141     1.605395331699
C                     2.451120920434     6.156998246072     1.063594910883
C                     0.063545197572    -2.029910608909     0.524372921902
N                     1.505366836854     2.430027641644    -0.093464316136
N                     1.810284312586     3.669836648059     0.294435433000
N                     1.473807925117     0.121458192755    -1.066849287228
O                     1.148591936556     5.598978527874     1.373464432245
H                    -1.646860403777     2.104348226141     1.076277828094
H                    -1.105118038993     4.449348806014     1.824193343977
H                    -1.047444597042    -0.763165873918    -1.732946211561
H                    -1.961498854286     0.544495726729    -0.847574523325
H                    -0.971276940755    -0.269846563018     1.342030469831
H                     2.000537876399    -1.487413632131     1.423717539677
H                     1.529914928439    -3.175279152447     1.659029770380
H                     0.747322530485    -1.893327425493     2.590344745757
H                     2.431420647734     7.158512674276     1.489127076188
H                     2.596751806461     6.195302637923    -0.017732363197
H                     3.237755057505     5.553963846193     1.521309702645
H                    -0.760414290008    -2.715268668235     0.748332317022
H                     0.446922291343    -2.357010436590    -0.451944627581
H                     1.962363767978    -0.680701982510    -0.657295236207
H                     2.056634629560     1.011538134679    -0.927173094766
H                     1.339805205575    -0.044556567677    -2.068399635981
