
  -OEChem-05262117483D

 27 28  0     1  0  0  0  0  0999 V2000
   -1.1993   -3.4817   -1.2438 C   0  0  0  0  0  0  0  0  0  0  0  0
   -4.6511   -4.6865   -0.5399 C   0  0  0  0  0  0  0  0  0  0  0  0
   -3.6767   -5.6142   -1.2361 C   0  0  0  0  0  0  0  0  0  0  0  0
   -0.9493   -0.3155   -0.6363 C   0  0  0  0  0  0  0  0  0  0  0  0
    1.0019   -0.2216    0.7568 C   0  0  0  0  0  0  0  0  0  0  0  0
   -3.5638   -4.1222   -1.4232 C   0  0  0  0  0  0  0  0  0  0  0  0
    0.3824    0.4538   -0.4826 C   0  0  2  0  0  0  0  0  0  0  0  0
   -0.2021   -2.6444   -0.4339 C   0  0  0  0  0  0  0  0  0  0  0  0
   -0.8524   -1.5010    0.2254 N   0  0  1  0  0  0  0  0  0  0  0  0
   -2.4820   -3.4236   -0.7888 N   0  0  0  0  0  0  0  0  0  0  0  0
   -0.8252   -4.1672   -2.1925 O   0  0  0  0  0  0  0  0  0  0  0  0
   -0.0389   -1.0453    1.3247 O   0  0  0  0  0  0  0  0  0  0  0  0
    0.0603    1.8344   -0.3034 O   0  0  0  0  0  0  0  0  0  0  0  0
   -5.6736   -4.6330   -0.9012 H   0  0  0  0  0  0  0  0  0  0  0  0
   -4.5405   -4.5561    0.5330 H   0  0  0  0  0  0  0  0  0  0  0  0
   -2.9098   -6.0873   -0.6322 H   0  0  0  0  0  0  0  0  0  0  0  0
   -4.0237   -6.2008   -2.0807 H   0  0  0  0  0  0  0  0  0  0  0  0
   -1.7489    0.3329   -0.2700 H   0  0  0  0  0  0  0  0  0  0  0  0
   -1.1676   -0.6133   -1.6637 H   0  0  0  0  0  0  0  0  0  0  0  0
    1.8710   -0.8376    0.4910 H   0  0  0  0  0  0  0  0  0  0  0  0
    1.2851    0.5036    1.5229 H   0  0  0  0  0  0  0  0  0  0  0  0
   -3.8580   -3.7267   -2.3931 H   0  0  0  0  0  0  0  0  0  0  0  0
    1.0306    0.3304   -1.3588 H   0  0  0  0  0  0  0  0  0  0  0  0
    0.2023   -3.2832    0.3559 H   0  0  0  0  0  0  0  0  0  0  0  0
    0.6187   -2.3777   -1.1125 H   0  0  0  0  0  0  0  0  0  0  0  0
   -2.6676   -2.7455   -0.0560 H   0  0  0  0  0  0  0  0  0  0  0  0
    0.8795    2.3511   -0.3491 H   0  0  0  0  0  0  0  0  0  0  0  0
  1  8  1  0  0  0  0
  1 10  1  0  0  0  0
  1 11  2  0  0  0  0
  2  3  1  0  0  0  0
  2  6  1  0  0  0  0
  2 14  1  0  0  0  0
  2 15  1  0  0  0  0
  3  6  1  0  0  0  0
  3 16  1  0  0  0  0
  3 17  1  0  0  0  0
  4  7  1  0  0  0  0
  4  9  1  0  0  0  0
  4 18  1  0  0  0  0
  4 19  1  0  0  0  0
  5  7  1  0  0  0  0
  5 12  1  0  0  0  0
  5 20  1  0  0  0  0
  5 21  1  0  0  0  0
  6 10  1  0  0  0  0
  6 22  1  0  0  0  0
  7 13  1  0  0  0  0
  7 23  1  0  0  0  0
  8  9  1  0  0  0  0
  8 24  1  0  0  0  0
  8 25  1  0  0  0  0
  9 12  1  0  0  0  0
 10 26  1  0  0  0  0
 13 27  1  0  0  0  0
M  END
$$$$
