
  -OEChem-05262117483D

 30 31  0     1  0  0  0  0  0999 V2000
   -0.7217    2.6297    0.6497 C   0  0  0  0  0  0  0  0  0  0  0  0
   -0.5098    3.9867    0.7893 C   0  0  0  0  0  0  0  0  0  0  0  0
    0.1397    1.9286   -0.2077 C   0  0  0  0  0  0  0  0  0  0  0  0
    0.5565    4.5707    0.0594 C   0  0  0  0  0  0  0  0  0  0  0  0
   -1.2197   -0.3187   -0.5193 C   0  0  0  0  0  0  0  0  0  0  0  0
   -0.2403   -0.5629    0.6002 C   0  0  2  0  0  0  0  0  0  0  0  0
    0.0800    0.4551   -0.4804 C   0  0  2  0  0  0  0  0  0  0  0  0
   -0.2908   -2.9101    1.5301 C   0  0  0  0  0  0  0  0  0  0  0  0
    0.1202    6.7594    0.9228 C   0  0  0  0  0  0  0  0  0  0  0  0
    0.5007   -1.8842    0.7065 C   0  0  0  0  0  0  0  0  0  0  0  0
    1.1201    2.5552   -0.8615 N   0  0  0  0  0  0  0  0  0  0  0  0
    1.3491    3.8517   -0.7500 N   0  0  0  0  0  0  0  0  0  0  0  0
    1.1462    0.1281   -1.4790 N   0  3  0  0  0  0  0  0  0  0  0  0
    0.8824    5.8648    0.0932 O   0  0  0  0  0  0  0  0  0  0  0  0
   -1.5264    2.1370    1.1874 H   0  0  0  0  0  0  0  0  0  0  0  0
   -1.1438    4.5798    1.4373 H   0  0  0  0  0  0  0  0  0  0  0  0
   -1.3181   -1.0996   -1.2703 H   0  0  0  0  0  0  0  0  0  0  0  0
   -2.1300    0.2448   -0.3404 H   0  0  0  0  0  0  0  0  0  0  0  0
   -0.4778   -0.1075    1.5593 H   0  0  0  0  0  0  0  0  0  0  0  0
   -0.4538   -2.5515    2.5509 H   0  0  0  0  0  0  0  0  0  0  0  0
    0.2524   -3.8567    1.5899 H   0  0  0  0  0  0  0  0  0  0  0  0
   -1.2681   -3.1055    1.0783 H   0  0  0  0  0  0  0  0  0  0  0  0
    0.5760    7.7376    0.7812 H   0  0  0  0  0  0  0  0  0  0  0  0
    0.1917    6.4704    1.9763 H   0  0  0  0  0  0  0  0  0  0  0  0
   -0.9261    6.7923    0.6023 H   0  0  0  0  0  0  0  0  0  0  0  0
    0.6797   -2.3017   -0.2941 H   0  0  0  0  0  0  0  0  0  0  0  0
    1.4813   -1.7177    1.1703 H   0  0  0  0  0  0  0  0  0  0  0  0
    1.8297   -0.5504   -1.1288 H   0  0  0  0  0  0  0  0  0  0  0  0
    1.6185    1.0813   -1.6241 H   0  0  0  0  0  0  0  0  0  0  0  0
    0.7749   -0.2065   -2.3729 H   0  0  0  0  0  0  0  0  0  0  0  0
  1  2  1  0  0  0  0
  1  3  2  0  0  0  0
  1 15  1  0  0  0  0
  2  4  2  0  0  0  0
  2 16  1  0  0  0  0
  3  7  1  0  0  0  0
  3 11  1  0  0  0  0
  4 12  1  0  0  0  0
  4 14  1  0  0  0  0
  5  6  1  0  0  0  0
  5  7  1  0  0  0  0
  5 17  1  0  0  0  0
  5 18  1  0  0  0  0
  6  7  1  0  0  0  0
  6 10  1  0  0  0  0
  6 19  1  0  0  0  0
  7 13  1  0  0  0  0
  8 10  1  0  0  0  0
  8 20  1  0  0  0  0
  8 21  1  0  0  0  0
  8 22  1  0  0  0  0
  9 14  1  0  0  0  0
  9 23  1  0  0  0  0
  9 24  1  0  0  0  0
  9 25  1  0  0  0  0
 10 26  1  0  0  0  0
 10 27  1  0  0  0  0
 11 12  2  0  0  0  0
 13 28  1  0  0  0  0
 13 29  1  0  0  0  0
 13 30  1  0  0  0  0
M  CHG  1  13   1
M  END
$$$$
