
  -OEChem-05262117483D

 27 28  0     1  0  0  0  0  0999 V2000
    0.0696   -0.7722   -3.5426 C   0  0  0  0  0  0  0  0  0  0  0  0
   -2.9845    1.1276   -4.4367 C   0  0  0  0  0  0  0  0  0  0  0  0
   -2.6818   -0.1748   -5.1488 C   0  0  0  0  0  0  0  0  0  0  0  0
    0.9883   -0.4715    0.1614 C   0  0  0  0  0  0  0  0  0  0  0  0
   -1.3702   -0.6432    0.5421 C   0  0  0  0  0  0  0  0  0  0  0  0
   -1.5534    0.6965   -4.6558 C   0  0  0  0  0  0  0  0  0  0  0  0
   -0.0594   -0.2854    1.2759 C   0  0  2  0  0  0  0  0  0  0  0  0
    0.7950   -1.0438   -2.2215 C   0  0  0  0  0  0  0  0  0  0  0  0
    0.1898   -0.3881   -1.0708 N   0  0  1  0  0  0  0  0  0  0  0  0
   -0.8006    0.2725   -3.5111 N   0  0  0  0  0  0  0  0  0  0  0  0
    0.3150   -1.4508   -4.5378 O   0  0  0  0  0  0  0  0  0  0  0  0
   -0.9806   -1.1984   -0.7125 O   0  0  0  0  0  0  0  0  0  0  0  0
   -0.1830    1.0554    1.7522 O   0  0  0  0  0  0  0  0  0  0  0  0
   -3.3536    1.9691   -5.0153 H   0  0  0  0  0  0  0  0  0  0  0  0
   -3.3736    1.0654   -3.4241 H   0  0  0  0  0  0  0  0  0  0  0  0
   -2.8521   -1.0987   -4.6069 H   0  0  0  0  0  0  0  0  0  0  0  0
   -2.8377   -0.2337   -6.2213 H   0  0  0  0  0  0  0  0  0  0  0  0
    1.7417    0.3204    0.1661 H   0  0  0  0  0  0  0  0  0  0  0  0
    1.4786   -1.4530    0.2547 H   0  0  0  0  0  0  0  0  0  0  0  0
   -1.9737   -1.3977    1.0494 H   0  0  0  0  0  0  0  0  0  0  0  0
   -1.9487    0.2787    0.4065 H   0  0  0  0  0  0  0  0  0  0  0  0
   -0.9783    1.2271   -5.4117 H   0  0  0  0  0  0  0  0  0  0  0  0
    0.1441   -0.9666    2.1105 H   0  0  0  0  0  0  0  0  0  0  0  0
    0.8657   -2.1314   -2.0887 H   0  0  0  0  0  0  0  0  0  0  0  0
    1.8113   -0.6490   -2.3238 H   0  0  0  0  0  0  0  0  0  0  0  0
   -0.8855    0.7661   -2.6290 H   0  0  0  0  0  0  0  0  0  0  0  0
    0.5669    1.2444    2.3369 H   0  0  0  0  0  0  0  0  0  0  0  0
  1  8  1  0  0  0  0
  1 10  1  0  0  0  0
  1 11  2  0  0  0  0
  2  3  1  0  0  0  0
  2  6  1  0  0  0  0
  2 14  1  0  0  0  0
  2 15  1  0  0  0  0
  3  6  1  0  0  0  0
  3 16  1  0  0  0  0
  3 17  1  0  0  0  0
  4  7  1  0  0  0  0
  4  9  1  0  0  0  0
  4 18  1  0  0  0  0
  4 19  1  0  0  0  0
  5  7  1  0  0  0  0
  5 12  1  0  0  0  0
  5 20  1  0  0  0  0
  5 21  1  0  0  0  0
  6 10  1  0  0  0  0
  6 22  1  0  0  0  0
  7 13  1  0  0  0  0
  7 23  1  0  0  0  0
  8  9  1  0  0  0  0
  8 24  1  0  0  0  0
  8 25  1  0  0  0  0
  9 12  1  0  0  0  0
 10 26  1  0  0  0  0
 13 27  1  0  0  0  0
M  END
$$$$
