
  -OEChem-05262117483D

 27 28  0     1  0  0  0  0  0999 V2000
    0.9823   -0.1134   -3.8203 C   0  0  0  0  0  0  0  0  0  0  0  0
   -2.0517   -0.4791   -5.9632 C   0  0  0  0  0  0  0  0  0  0  0  0
   -0.6888   -0.7120   -6.5819 C   0  0  0  0  0  0  0  0  0  0  0  0
    0.2163    1.2350   -1.0231 C   0  0  0  0  0  0  0  0  0  0  0  0
   -0.3373   -0.2450    0.7628 C   0  0  0  0  0  0  0  0  0  0  0  0
   -0.8405    0.2483   -5.4293 C   0  0  0  0  0  0  0  0  0  0  0  0
   -0.6817    1.1652    0.2157 C   0  0  2  0  0  0  0  0  0  0  0  0
    1.2998   -0.5153   -2.3764 C   0  0  0  0  0  0  0  0  0  0  0  0
    0.2180   -0.1702   -1.4579 N   0  0  1  0  0  0  0  0  0  0  0  0
   -0.3454   -0.1352   -4.1370 N   0  0  0  0  0  0  0  0  0  0  0  0
    1.8777    0.1580   -4.6145 O   0  0  0  0  0  0  0  0  0  0  0  0
    0.5320   -0.8579   -0.1991 O   0  0  0  0  0  0  0  0  0  0  0  0
   -2.0658    1.3083   -0.0935 O   0  0  0  0  0  0  0  0  0  0  0  0
   -2.7859    0.1007   -6.5143 H   0  0  0  0  0  0  0  0  0  0  0  0
   -2.4675   -1.2757   -5.3524 H   0  0  0  0  0  0  0  0  0  0  0  0
   -0.1914   -1.6519   -6.3679 H   0  0  0  0  0  0  0  0  0  0  0  0
   -0.4784   -0.2926   -7.5604 H   0  0  0  0  0  0  0  0  0  0  0  0
   -0.2048    1.8779   -1.7988 H   0  0  0  0  0  0  0  0  0  0  0  0
    1.2321    1.5722   -0.7660 H   0  0  0  0  0  0  0  0  0  0  0  0
    0.2049   -0.2241    1.7112 H   0  0  0  0  0  0  0  0  0  0  0  0
   -1.2601   -0.8268    0.8816 H   0  0  0  0  0  0  0  0  0  0  0  0
   -0.7470    1.3076   -5.6589 H   0  0  0  0  0  0  0  0  0  0  0  0
   -0.4624    1.9595    0.9300 H   0  0  0  0  0  0  0  0  0  0  0  0
    1.4211   -1.6024   -2.3484 H   0  0  0  0  0  0  0  0  0  0  0  0
    2.2567   -0.0570   -2.0972 H   0  0  0  0  0  0  0  0  0  0  0  0
   -0.9907   -0.2880   -3.3696 H   0  0  0  0  0  0  0  0  0  0  0  0
   -2.2899    0.6157   -0.7378 H   0  0  0  0  0  0  0  0  0  0  0  0
  1  8  1  0  0  0  0
  1 10  1  0  0  0  0
  1 11  2  0  0  0  0
  2  3  1  0  0  0  0
  2  6  1  0  0  0  0
  2 14  1  0  0  0  0
  2 15  1  0  0  0  0
  3  6  1  0  0  0  0
  3 16  1  0  0  0  0
  3 17  1  0  0  0  0
  4  7  1  0  0  0  0
  4  9  1  0  0  0  0
  4 18  1  0  0  0  0
  4 19  1  0  0  0  0
  5  7  1  0  0  0  0
  5 12  1  0  0  0  0
  5 20  1  0  0  0  0
  5 21  1  0  0  0  0
  6 10  1  0  0  0  0
  6 22  1  0  0  0  0
  7 13  1  0  0  0  0
  7 23  1  0  0  0  0
  8  9  1  0  0  0  0
  8 24  1  0  0  0  0
  8 25  1  0  0  0  0
  9 12  1  0  0  0  0
 10 26  1  0  0  0  0
 13 27  1  0  0  0  0
M  END
$$$$
