30
1 1 C10H16N3O
C                    -0.721678544646     2.629743237950     0.649684207389
C                    -0.509770948828     3.986670638940     0.789311445667
C                     0.139686638420     1.928606574732    -0.207655408217
C                     0.556542657601     4.570663395950     0.059412360600
C                    -1.219695271685    -0.318665891257    -0.519303097301
C                    -0.240348002751    -0.562915496415     0.600226363344
C                     0.079953797518     0.455053596611    -0.480398904249
C                    -0.290825883495    -2.910146023762     1.530070358370
C                     0.120237449723     6.759450159427     0.922771774443
C                     0.500699173946    -1.884248093960     0.706456915643
N                     1.120120964347     2.555166066104    -0.861518205240
N                     1.349112681279     3.851655153594    -0.750025858724
N                     1.146220397136     0.128057567041    -1.479015515713
O                     0.882375799084     5.864811752716     0.093174771533
H                    -1.526379236198     2.136963052792     1.187424897064
H                    -1.143815329047     4.579842842519     1.437287987614
H                    -1.318114279336    -1.099599244571    -1.270314082904
H                    -2.130039525714     0.244784248769    -0.340352763999
H                    -0.477824732291    -0.107541562379     1.559261768308
H                    -0.453834890912    -2.551457692755     2.550855446755
H                     0.252374131667    -3.856662556451     1.589863440805
H                    -1.268107996030    -3.105526669151     1.078318451837
H                     0.576024374821     7.737638128095     0.781179526553
H                     0.191704631227     6.470362538401     1.976284896360
H                    -0.926068363253     6.792344904948     0.602329673420
H                     0.679677183216    -2.301677264977    -0.294123758206
H                     1.481285585403    -1.717700621413     1.170333425678
H                     1.829746000449    -0.550351480032    -1.128752818339
H                     1.618537384225     1.081301566652    -1.624071170237
H                     0.774933991901    -0.206496769422    -2.372882683682
