27
0 1 C8H14N2O3
C                     0.120650625997    -1.562749421843    -3.130769893212
C                    -0.792265418692    -1.482810880503    -6.288910197038
C                    -0.592213101636     0.009759408917    -6.448333282712
C                    -0.315674579487    -1.824161545719    -0.074570668258
C                    -1.463925657127     0.051713324319    -1.042199969333
C                    -0.955546338527    -0.568994567792    -5.101412733903
C                    -1.732190641756    -1.343707898088    -0.447480276961
C                     1.161328284790    -1.330077552582    -2.029772975209
N                     0.646007357127    -0.921662200959    -0.716834959178
N                     0.057512624997    -0.578699053407    -4.081893141066
O                    -0.607715358606    -2.555981189512    -3.143458821876
O                    -0.058408193925     0.334445685798    -0.842924203958
O                    -2.514537490902    -1.318999169468     0.752367928266
H                    -1.689165010208    -1.937582055237    -6.696719508460
H                     0.088906687449    -2.115147769909    -6.297329247706
H                     0.424802810939     0.368376189873    -6.579476556153
H                    -1.349287389135     0.587232162931    -6.969881858838
H                    -0.214068083491    -1.728967058234     1.010346665730
H                    -0.127239210360    -2.855090426764    -0.373665670643
H                    -1.709869814716     0.093061580528    -2.109917498777
H                    -2.019168168655     0.824956473321    -0.505461197330
H                    -1.970254567496    -0.411006303790    -4.739516027927
H                    -2.191071978220    -2.000863325676    -1.190910497390
H                     1.694611900031    -2.271928123426    -1.875531259399
H                     1.893247662612    -0.574059719758    -2.328730597898
H                     0.539527239564     0.289815001561    -3.883516902864
H                    -3.449688281375    -1.261118993856     0.504484971212
