38   
torsion grid (-165,)
C       -6.1418884844    5.5265669323   -5.9420583269
C       -6.7891822161    5.7241500554   -4.7163373315
C       -4.9602347240    4.7904119015   -5.9875835652
C       -6.2209762337    5.2340464263   -3.5387179679
C       -4.4145217429    4.2111863326   -4.8286702891
C       -5.0315790379    4.5127068853   -3.6055484534
C       -2.1357960553    1.5721523177   -1.5909285057
C       -1.8651717620    0.8205530995   -0.5018162583
C       -1.4212865213    1.3658904119   -2.8475376544
C       -3.1607471379    3.4086736650   -5.0057084809
C       -0.8255133772   -0.2756926634   -0.5210383593
C       -0.2102088781    0.4655033267   -2.8247584631
C       -0.4358719953   -0.7706602119   -1.9299847658
C       -2.5820993944    1.0339316533    0.8018138350
C        0.8623725562   -1.5868229551   -1.8491240368
C       -1.5550114782   -1.6527642013   -2.5144345751
N       -1.7014622857    1.8883547820   -3.9960178698
O       -2.5338726499    3.3698202384   -6.0409506405
O       -2.8640423439    2.7214425426   -3.8693444411
F       -4.4151440879    4.2565826883   -2.4255052939
H       -6.5564569859    5.9461549426   -6.8539523955
H       -7.7151496490    6.2908007242   -4.6692191332
H       -4.4448399508    4.6096249639   -6.9254136480
H       -6.6570577185    5.4401537763   -2.5660199855
H       -2.9009753193    2.3396305618   -1.5592104892
H        0.0697341798    0.1012171904   -0.0033830075
H       -1.1790207304   -1.1200705122    0.0853815013
H        0.0472517994    0.1764864038   -3.8471873962
H        0.6336535717    1.0441988243   -2.4251071749
H       -3.1592155742    0.1409214474    1.0739715175
H       -3.2631344448    1.8875994474    0.7600148435
H       -1.8640090935    1.2013858188    1.6148293591
H        1.1472919364   -1.9679726612   -2.8359968733
H        0.7424337509   -2.4475226427   -1.1809923016
H        1.6925688194   -0.9798638770   -1.4701990367
H       -1.3056856835   -1.9669208257   -3.5336326884
H       -2.5131699160   -1.1268498067   -2.5540858323
H       -1.6902163616   -2.5553511901   -1.9079519093
38   
torsion grid (-150,)
C       -6.1149281084    5.5502764047   -5.9243434319
C       -6.8296214587    5.6127850778   -4.7218659281
C       -4.9014142292    4.8641380547   -5.9715818009
C       -6.2737042118    5.0909033728   -3.5497981158
C       -4.4141270683    4.1881603840   -4.8423125569
C       -5.0435188071    4.4405485934   -3.6118234240
C       -2.1336286148    1.5714248177   -1.6056504509
C       -1.8566241532    0.8359903946   -0.5072137132
C       -1.4343937144    1.3389911482   -2.8662961831
C       -3.1349323736    3.4262006749   -5.0065660768
C       -0.8264396421   -0.2692715154   -0.5198324758
C       -0.2275723851    0.4332156085   -2.8402141933
C       -0.4523286312   -0.7878036322   -1.9245583339
C       -2.5557514193    1.0778240886    0.8011467095
C        0.8418752709   -1.6102746074   -1.8428051641
C       -1.5817452197   -1.6720683068   -2.4855118697
N       -1.7247389285    1.8431056006   -4.0203248408
O       -2.4500467090    3.4611884733   -6.0043604622
O       -2.8917056851    2.6708638796   -3.8997897780
F       -4.3581058145    4.3613031219   -2.4425839726
H       -6.5012931753    6.0357026025   -6.8156845869
H       -7.7835762492    6.1311760413   -4.6769253825
H       -4.3403754186    4.7652543473   -6.8954568322
H       -6.7313607956    5.2647261737   -2.5805207049
H       -2.8908730733    2.3470303847   -1.5777688524
H        0.0760735182    0.1074961138   -0.0148556115
H       -1.1818387446   -1.1018722141    0.1016030725
H        0.0197683401    0.1270809238   -3.8601353658
H        0.6223973112    1.0136710816   -2.4564838014
H       -3.1377952517    0.1949948346    1.0951448582
H       -3.2292715202    1.9371170788    0.7531539889
H       -1.8263927203    1.2520703092    1.6026020509
H        1.1155150224   -2.0083709459   -2.8261727239
H        0.7231298754   -2.4597544461   -1.1602581567
H        1.6789787333   -1.0023784953   -1.4809849476
H       -1.3435127968   -2.0029840205   -3.5020653684
H       -2.5372341067   -1.1412334454   -2.5244198162
H       -1.7165573516   -2.5646070059   -1.8642673902
38   
torsion grid (-135,)
C       -6.0684897692    5.6067835834   -5.8834897220
C       -6.8470101352    5.5188901873   -4.7228446422
C       -4.8354105128    4.9509014504   -5.9349588285
C       -6.3212338829    4.9297330108   -3.5656435771
C       -4.4211551135    4.1520961569   -4.8614324726
C       -5.0613273270    4.3357283453   -3.6198904150
C       -2.1253274439    1.5696786468   -1.6243100516
C       -1.8389440084    0.8523371594   -0.5164050869
C       -1.4414447133    1.3120729300   -2.8885484503
C       -3.1278931210    3.4153140281   -5.0194814222
C       -0.8142911689   -0.2581040476   -0.5213945174
C       -0.2367004316    0.4037740408   -2.8592065904
C       -0.4560946248   -0.8010805915   -1.9210427483
C       -2.5210350986    1.1210220981    0.7957080427
C        0.8362238345   -1.6264418159   -1.8386087388
C       -1.5939577496   -1.6907227373   -2.4558077302
N       -1.7438339551    1.7963045370   -4.0479555454
O       -2.4132987167    3.4942649902   -5.9936226956
O       -2.9131681710    2.6211175817   -3.9323355416
F       -4.3489982306    4.4069399541   -2.4629431766
H       -6.4192213606    6.1818566500   -6.7353220551
H       -7.8189354426    6.0028966713   -4.6789094289
H       -4.2291473425    4.9379933383   -6.8352976611
H       -6.8063923531    5.0592739113   -2.6024650707
H       -2.8775820784    2.3503759425   -1.6007529860
H        0.0947803423    0.1224425900   -0.0312348932
H       -1.1674743588   -1.0788438934    0.1168657615
H       -0.0001204795    0.0798054909   -3.8761551012
H        0.6184019887    0.9882226629   -2.4934268313
H       -3.1040109745    0.2466556972    1.1122796663
H       -3.1906527450    1.9829364129    0.7404891159
H       -1.7812241016    1.3055878973    1.5851682812
H        1.0984571483   -2.0420274043   -2.8178371367
H        0.7217728266   -2.4638369242   -1.1405705733
H        1.6789385847   -1.0153320352   -1.4957292336
H       -1.3672671974   -2.0389799461   -3.4692060571
H       -2.5481877666   -1.1575287380   -2.4935677188
H       -1.7250550881   -2.5725340047   -1.8186615336
38   
torsion grid (-120,)
C       -6.0399936896    5.6734928294   -5.8291586764
C       -6.8590788011    5.4657263189   -4.7129950416
C       -4.7974358391    5.0290314975   -5.8948258807
C       -6.3476923949    4.8166930891   -3.5777176644
C       -4.4431220200    4.1197172520   -4.8936041429
C       -5.0685753293    4.2626320588   -3.6318916678
C       -2.1416714439    1.5762261644   -1.6511777825
C       -1.8493368789    0.8781417133   -0.5326419716
C       -1.4636505567    1.2984224308   -2.9143265398
C       -3.1380585066    3.4039144149   -5.0457385381
C       -0.8237702022   -0.2314024680   -0.5242361512
C       -0.2567058842    0.3935082730   -2.8748866771
C       -0.4705331273   -0.7963801504   -1.9164208157
C       -2.5241153122    1.1692356435    0.7784732849
C        0.8232859455   -1.6185264783   -1.8258635691
C       -1.6092462805   -1.6961230760   -2.4321399652
N       -1.7728197563    1.7626767000   -4.0800418718
O       -2.3907849645    3.5206196313   -5.9911441127
O       -2.9499184127    2.5769462691   -3.9761878216
F       -4.3187415936    4.4929620241   -2.5157226740
H       -6.3645099312    6.3285075919   -6.6320750789
H       -7.8401172995    5.9303423751   -4.6604152010
H       -4.1619891242    5.0847934318   -6.7734756177
H       -6.8367129093    4.9231659088   -2.6130522879
H       -2.8927316990    2.3583440838   -1.6361276362
H        0.0868573288    0.1583066757   -0.0442630929
H       -1.1730604111   -1.0420950104    0.1288244319
H       -0.0235623340    0.0532818738   -3.8872999930
H        0.5986162916    0.9854738982   -2.5220477149
H       -3.1053958500    0.3004901925    1.1131031188
H       -3.1939233473    2.0302577508    0.7124058764
H       -1.7799473823    1.3671210847    1.5605587523
H        1.0823039891   -2.0493555455   -2.7993387725
H        0.7127485814   -2.4448098649   -1.1140896449
H        1.6664410671   -1.0008455226   -1.4961047553
H       -1.3860238826   -2.0605630444   -3.4406037907
H       -2.5643955041   -1.1649527630   -2.4748558021
H       -1.7366103698   -2.5675988686   -1.7801943278
38   
torsion grid (-105,)
C       -5.9853367620    5.7365645967   -5.7571552062
C       -6.8639533298    5.3826579028   -4.7260693287
C       -4.7308255523    5.1054328519   -5.8298907693
C       -6.3934640298    4.6400824469   -3.6258262117
C       -4.4566152868    4.0766720092   -4.9285210988
C       -5.0907661917    4.1339176270   -3.6564101552
C       -2.1356978494    1.5765960992   -1.6814389854
C       -1.8325201971    0.9002450968   -0.5524995831
C       -1.4724828817    1.2718463831   -2.9462924934
C       -3.1432300535    3.3752986140   -5.0768289235
C       -0.8105841617   -0.2125149542   -0.5335571783
C       -0.2661668525    0.3664376927   -2.9013451755
C       -0.4726328820   -0.8045809210   -1.9182796160
C       -2.4906460463    1.2202602999    0.7603483623
C        0.8203681854   -1.6277353513   -1.8251735134
C       -1.6183665116   -1.7114337909   -2.4051936354
N       -1.7943654646    1.7125973149   -4.1176168494
O       -2.3742454162    3.5176745945   -6.0011809491
O       -2.9733293250    2.5246577732   -4.0205434778
F       -4.3778165723    4.4978692636   -2.5455394703
H       -6.2728897791    6.4865194483   -6.4877656353
H       -7.8551633136    5.8257902898   -4.6772816966
H       -4.0548902556    5.2403038796   -6.6689592969
H       -6.9154077560    4.6975018207   -2.6736399145
H       -2.8838962843    2.3616260166   -1.6729241811
H        0.1058632130    0.1828697234   -0.0695731234
H       -1.1562395848   -1.0097121862    0.1378109620
H       -0.0431948341    0.0065084127   -3.9092135503
H        0.5931582792    0.9638262535   -2.5679749897
H       -3.0707662774    0.3605648933    1.1194517454
H       -3.1582864632    2.0821876236    0.6848232354
H       -1.7364924062    1.4312715058    1.5293172741
H        1.0683719763   -2.0779906342   -2.7927015250
H        0.7154989535   -2.4397791709   -1.0963546093
H        1.6681779777   -1.0056963677   -1.5162008839
H       -1.4064999082   -2.0950043123   -3.4089981613
H       -2.5729782261   -1.1792739047   -2.4476944213
H       -1.7403876726   -2.5703810326   -1.7358395415
38   
torsion grid (105,)
C       -6.4418869123    5.5230680985   -5.8446021725
C       -6.5702400325    6.2010066970   -4.6256390585
C       -5.4739746399    4.5108824784   -5.9615029493
C       -5.9581530814    5.6855370481   -3.4678764351
C       -4.6118658760    4.2928779531   -4.8856046410
C       -5.1027518387    4.5847915021   -3.5837088871
C       -2.3537172897    1.7592403222   -1.6035467210
C       -2.1103557148    1.0007802681   -0.5126232134
C       -1.5596548049    1.6147182294   -2.8202738681
C       -3.5426749785    3.2623830582   -5.0731728559
C       -1.0092343248   -0.0335265524   -0.4879091656
C       -0.3221132013    0.7523805309   -2.7547749096
C       -0.5380082822   -0.5000773139   -1.8814674972
C       -2.9239064094    1.1397261421    0.7432452559
C        0.7871421792   -1.2646408930   -1.7486453834
C       -1.5934919814   -1.4203513949   -2.5225351515
N       -1.7932880519    2.1568868827   -3.9700687161
O       -3.2488074808    2.7470089989   -6.1291453606
O       -2.9324390091    3.0257607082   -3.8749658707
F       -5.4623551293    3.5737332039   -2.7336182819
H       -7.0810305221    5.7801839091   -6.6838166215
H       -7.2811642100    7.0171718779   -4.5271185644
H       -5.2347495389    4.0352159609   -6.9078380239
H       -6.3491157578    5.9485322019   -2.4879203526
H       -3.1704846791    2.4722171436   -1.6079850221
H       -0.1574987356    0.3921652750    0.0641824171
H       -1.3380620013   -0.8984085340    0.1028923238
H       -0.0147400380    0.4840298328   -3.7691034041
H        0.4853652094    1.3556806533   -2.3176716200
H       -3.4588450675    0.2060177904    0.9589668576
H       -3.6546636250    1.9491327970    0.6715585506
H       -2.2731776969    1.3331491531    1.6057406193
H        1.1334850672   -1.6199507649   -2.7254585746
H        0.6709149882   -2.1389973241   -1.0978789394
H        1.5733487361   -0.6305836037   -1.3230191083
H       -1.2830264257   -1.7195772574   -3.5292752867
H       -2.5676872075   -0.9308395209   -2.6080709747
H       -1.7237683933   -2.3304957053   -1.9263243323
38   
torsion grid (120,)
C       -6.1535436945    5.6149036730   -5.8401176514
C       -6.4264682667    6.1368670544   -4.5700914913
C       -5.1921092161    4.6039183251   -5.9711192852
C       -5.9227015492    5.4992013759   -3.4250076499
C       -4.4587716359    4.2055100011   -4.8493276115
C       -5.0386505106    4.4309004627   -3.5779343793
C       -2.2016396447    1.6193846474   -1.5985013485
C       -1.9540093894    0.8525832768   -0.5144347469
C       -1.4297626726    1.4629980243   -2.8279483768
C       -3.3932198270    3.1756446960   -5.0554687383
C       -0.8742985597   -0.2043701108   -0.5103206816
C       -0.2040710967    0.5830228251   -2.7822234265
C       -0.4279081026   -0.6703680912   -1.9122486093
C       -2.7429732151    1.0037740644    0.7556546790
C        0.8868389619   -1.4558994291   -1.8003189722
C       -1.5058094313   -1.5706813055   -2.5443415271
N       -1.6742626589    2.0086732479   -3.9738568206
O       -3.0892461761    2.7006280786   -6.1270645446
O       -2.8009088948    2.8905375030   -3.8597149178
F       -5.2877823572    3.3829174379   -2.7412368802
H       -6.6829458628    5.9887516834   -6.7113254143
H       -7.1439830165    6.9447287806   -4.4535972379
H       -4.8781622865    4.2255581461   -6.9392058068
H       -6.3659770166    5.6827295669   -2.4498634753
H       -3.0044324750    2.3479612864   -1.5875671992
H       -0.0081967868    0.1984419122    0.0365498344
H       -1.2154047589   -1.0669394203    0.0770277764
H        0.0872343313    0.3151879718   -3.8014152572
H        0.6171831326    1.1723466502   -2.3517378299
H       -3.2949955205    0.0812897852    0.9765599109
H       -3.4566772466    1.8294808460    0.6995948072
H       -2.0737540462    1.1789844728    1.6078055136
H        1.2139978875   -1.8134075482   -2.7829251951
H        0.7660248205   -2.3304304367   -1.1506065889
H        1.6886453874   -0.8355062145   -1.3837602772
H       -1.2146230457   -1.8667897339   -3.5577485220
H       -2.4739121060   -1.0664036016   -2.6117819575
H       -1.6405834302   -2.4832614492   -1.9528855964
38   
torsion grid (135,)
C       -6.1431674947    5.7090406642   -5.8989969510
C       -6.5187068905    6.1628416113   -4.6282775266
C       -5.1778498000    4.7051359534   -6.0133457434
C       -6.0630657504    5.4976347469   -3.4830067908
C       -4.5381363393    4.2127938975   -4.8681418426
C       -5.1476254722    4.4549391577   -3.6215636221
C       -2.2317068856    1.6636818693   -1.6046764151
C       -1.9615786331    0.9147492825   -0.5134791341
C       -1.4811840905    1.4908797666   -2.8451208206
C       -3.4605166600    3.1942948981   -5.0731317993
C       -0.8775763904   -0.1378419016   -0.5117961450
C       -0.2492512881    0.6194208296   -2.8060027495
C       -0.4510353740   -0.6220463379   -1.9137371728
C       -2.7282734515    1.0827868952    0.7681181426
C        0.8702314969   -1.3979078108   -1.8115424478
C       -1.5334379317   -1.5381524178   -2.5146824255
N       -1.7498100777    2.0149067191   -3.9958546900
O       -3.1341683571    2.7511314742   -6.1515882578
O       -2.8841611920    2.8861246736   -3.8768184635
F       -5.2604815997    3.4707053875   -2.6897124353
H       -6.6011919442    6.1326310448   -6.7878687835
H       -7.2497017976    6.9604066643   -4.5262377622
H       -4.8111348459    4.3684720529   -6.9779429358
H       -6.5191530630    5.6775876720   -2.5137420165
H       -3.0368452922    2.3896333790   -1.5909484092
H       -0.0047835068    0.2760325463    0.0158392330
H       -1.2058341281   -0.9933846756    0.0929409158
H        0.0275850589    0.3379757683   -3.8255534676
H        0.5749334205    1.2202282441   -2.3975253204
H       -3.2728284675    0.1619175408    1.0130573203
H       -3.4459128183    1.9050714022    0.7121273316
H       -2.0446385296    1.2734230604    1.6053920679
H        1.1839475124   -1.7677537604   -2.7939695912
H        0.7653237726   -2.2635531388   -1.1473191140
H        1.6746425341   -0.7666226400   -1.4169523743
H       -1.2567999523   -1.8478888525   -3.5281061015
H       -2.5055234350   -1.0405188225   -2.5739034576
H       -1.6531617693   -2.4424568522   -1.9074853883
38   
torsion grid (150,)
C       -6.0442523219    5.7296475800   -5.8711438428
C       -6.5345774672    6.0839115024   -4.6089390207
C       -5.0591176837    4.7478102084   -5.9772767426
C       -6.1242968356    5.3751348515   -3.4756036062
C       -4.5111403424    4.1479241978   -4.8325552602
C       -5.1658552106    4.3739371806   -3.6093666827
C       -2.1884974239    1.5792368074   -1.5846561662
C       -1.9099813913    0.8305371014   -0.4954209431
C       -1.4519844541    1.4008670766   -2.8326832468
C       -3.4147363140    3.1499755597   -5.0434449259
C       -0.8322687695   -0.2284665892   -0.5043059702
C       -0.2228830942    0.5250376790   -2.8049460575
C       -0.4217330746   -0.7151680684   -1.9101532673
C       -2.6600073167    1.0061394267    0.7950178173
C        0.8967799427   -1.4972428472   -1.8205743969
C       -1.5142393478   -1.6264349802   -2.5001208101
N       -1.7303235439    1.9246437503   -3.9811601262
O       -3.0577690967    2.7572894083   -6.1319812399
O       -2.8675647761    2.7913458464   -3.8496571236
F       -5.1294688733    3.4400756652   -2.6245938816
H       -6.4295232100    6.2135917681   -6.7636904995
H       -7.2904241254    6.8583958333   -4.5103866271
H       -4.6317286672    4.4753314854   -6.9371940916
H       -6.6029517903    5.5193100493   -2.5115524927
H       -2.9878163065    2.3114065291   -1.5631734282
H        0.0478569476    0.1804943891    0.0149356566
H       -1.1595157260   -1.0821017324    0.1036966011
H        0.0433186742    0.2418194792   -3.8268326495
H        0.6073846886    1.1227339333   -2.4043831831
H       -3.2071859148    0.0892395006    1.0488608005
H       -3.3731189689    1.8327753367    0.7457148983
H       -1.9650608873    1.1945688427    1.6234387874
H        1.1984128115   -1.8701296987   -2.8056326533
H        0.7946371983   -2.3613250599   -1.1538836998
H        1.7082918611   -0.8692307311   -1.4354263150
H       -1.2495305010   -1.9369622626   -3.5164928860
H       -2.4847717818   -1.1246442048   -2.5489214588
H       -1.6314774635   -2.5304523442   -1.8920154381
38   
torsion grid (165,)
C       -6.0222856035    5.7535521022   -5.8796269673
C       -6.6169925468    6.0222897520   -4.6412135599
C       -5.0001440107    4.8110125675   -5.9636813800
C       -6.2254340117    5.3063648217   -3.5081298298
C       -4.5260305871    4.1394328143   -4.8230215496
C       -5.2112243852    4.3587102954   -3.6181807083
C       -2.1798774002    1.5643283103   -1.5755345689
C       -1.8909172342    0.8208367324   -0.4854599310
C       -1.4627782625    1.3727524639   -2.8328411619
C       -3.3969117556    3.1756472883   -5.0319092671
C       -0.8221505465   -0.2470970186   -0.5033557604
C       -0.2375755304    0.4912254146   -2.8154280082
C       -0.4325845416   -0.7433401293   -1.9118453223
C       -2.6185618400    1.0124793533    0.8155163333
C        0.8821334857   -1.5331340448   -1.8351410064
C       -1.5380644312   -1.6508659384   -2.4831444088
N       -1.7542229989    1.8898623754   -3.9810167072
O       -2.9879896565    2.8546424993   -6.1257340147
O       -2.8950873108    2.7509892246   -3.8408775902
F       -5.0253755619    3.5421156710   -2.5521011877
H       -6.3557603299    6.2747436462   -6.7721279336
H       -7.4106486802    6.7601292147   -4.5608099318
H       -4.5119539872    4.5933500033   -6.9082556056
H       -6.7220906022    5.4346172498   -2.5511904665
H       -2.9711556618    2.3048710988   -1.5468275099
H        0.0675046142    0.1571884579    0.0031681491
H       -1.1485202790   -1.0953398636    0.1126504133
H        0.0150445512    0.2012926236   -3.8388576216
H        0.6003979553    1.0864881937   -2.4275633415
H       -3.1696311995    0.1024149352    1.0850728238
H       -3.3249819977    1.8451272711    0.7714423528
H       -1.9087280595    1.2008421218    1.6312380743
H        1.1685484381   -1.9133009490   -2.8219591424
H        0.7833821574   -2.3928781781   -1.1623492509
H        1.7024634614   -0.9080858633   -1.4641332748
H       -1.2885810105   -1.9677393466   -3.5014196909
H       -2.5062082600   -1.1435547114   -2.5214396614
H       -1.6525975468   -2.5513134954   -1.8692531498
38   
torsion grid (180,)
C       -6.0893773301    5.6681660555   -5.9359146109
C       -6.7319178455    5.9020163886   -4.7142501987
C       -4.9826219403    4.8252863141   -5.9829481173
C       -6.2620753976    5.2907006725   -3.5512107956
C       -4.4853211818    4.1939224669   -4.8277066656
C       -5.1535228136    4.4504349664   -3.6210597453
C       -2.1657925406    1.5782496064   -1.5770608895
C       -1.8776017225    0.8350932922   -0.4865762644
C       -1.4552719726    1.3782570433   -2.8367591522
C       -3.2859954011    3.3126026286   -5.0195908894
C       -0.8191436373   -0.2429808554   -0.5068107778
C       -0.2346830866    0.4902657456   -2.8207513506
C       -0.4356916062   -0.7424663366   -1.9158166285
C       -2.5942606581    1.0391385446    0.8186378827
C        0.8740962844   -1.5406273070   -1.8412728753
C       -1.5480819352   -1.6433788373   -2.4841880233
N       -1.7465917706    1.8955191803   -3.9848717139
O       -2.7500722454    3.1493317847   -6.0934132820
O       -2.9008425746    2.7392979230   -3.8480304045
F       -4.7489274070    3.8885796126   -2.4565355445
H       -6.4505436823    6.1412306180   -6.8443386647
H       -7.5966247935    6.5581338303   -4.6637704971
H       -4.4663380640    4.6285370363   -6.9169246172
H       -6.7373705126    5.4513067776   -2.5884144168
H       -2.9468203197    2.3293795531   -1.5454927174
H        0.0748159052    0.1532585910   -0.0015022750
H       -1.1520940824   -1.0883142745    0.1097425013
H        0.0148875305    0.1977944551   -3.8441801516
H        0.6071494882    1.0810449306   -2.4345338991
H       -3.1535423830    0.1362093330    1.0952422143
H       -3.2915464799    1.8795457465    0.7763906203
H       -1.8768705870    1.2224961309    1.6288639778
H        1.1560732533   -1.9233268590   -2.8283929387
H        0.7712644800   -2.3991973606   -1.1675808772
H        1.6991260268   -0.9205101509   -1.4724607097
H       -1.3024859061   -1.9629585121   -3.5025908066
H       -2.5129837051   -1.1297703599   -2.5210256110
H       -1.6673876069   -2.5424491114   -1.8691923216
