
  -OEChem-05262117483D

 44 47  0     1  0  0  0  0  0999 V2000
    3.8191    0.7462   -2.3806 C   0  0  0  0  0  0  0  0  0  0  0  0
    4.2789    2.2934   -0.5927 C   0  0  0  0  0  0  0  0  0  0  0  0
    5.1686    0.3978   -2.4442 C   0  0  0  0  0  0  0  0  0  0  0  0
    5.6375    1.9649   -0.6451 C   0  0  0  0  0  0  0  0  0  0  0  0
    3.3510    1.6955   -1.4560 C   0  0  0  0  0  0  0  0  0  0  0  0
    6.0578    1.0181   -1.5712 C   0  0  0  0  0  0  0  0  0  0  0  0
   -0.2753   -2.5276    1.1547 C   0  0  0  0  0  0  0  0  0  0  0  0
    0.9430    0.8587   -1.6713 C   0  0  0  0  0  0  0  0  0  0  0  0
   -1.3740    0.5739    0.7709 C   0  0  0  0  0  0  0  0  0  0  0  0
   -1.8717   -0.7837    0.2426 C   0  0  0  0  0  0  0  0  0  0  0  0
   -0.3363    0.5467    1.9087 C   0  0  0  0  0  0  0  0  0  0  0  0
    1.3261    3.1987   -0.6480 C   0  0  0  0  0  0  0  0  0  0  0  0
    1.4603    3.3207   -2.1415 C   0  0  0  0  0  0  0  0  0  0  0  0
    0.2990   -1.4187   -1.0817 C   0  0  0  0  0  0  0  0  0  0  0  0
    1.7461   -0.1096    0.4852 C   0  0  0  0  0  0  0  0  0  0  0  0
   -0.8127   -1.8546   -0.1048 C   0  0  1  0  0  0  0  0  0  0  0  0
    0.8969   -0.3677    1.7462 C   0  0  2  0  0  0  0  0  0  0  0  0
    1.8873    2.0367   -1.4570 C   0  0  0  0  0  0  0  0  0  0  0  0
    0.5790   -1.7872    1.9238 N   0  0  0  0  0  0  0  0  0  0  0  0
    1.0111   -0.1764   -0.7705 N   0  0  0  0  0  0  0  0  0  0  0  0
   -0.5885   -3.6770    1.4650 O   0  0  0  0  0  0  0  0  0  0  0  0
    0.1606    0.8414   -2.6254 O   0  0  0  0  0  0  0  0  0  0  0  0
    7.3743    0.6865   -1.6251 F   0  0  0  0  0  0  0  0  0  0  0  0
    3.1180    0.2767   -3.0655 H   0  0  0  0  0  0  0  0  0  0  0  0
    3.9514    3.0223    0.1424 H   0  0  0  0  0  0  0  0  0  0  0  0
    5.5342   -0.3353   -3.1568 H   0  0  0  0  0  0  0  0  0  0  0  0
    6.3600    2.4263    0.0213 H   0  0  0  0  0  0  0  0  0  0  0  0
   -0.9924    1.1584   -0.0659 H   0  0  0  0  0  0  0  0  0  0  0  0
   -2.2478    1.1254    1.1384 H   0  0  0  0  0  0  0  0  0  0  0  0
   -2.5572   -1.2344    0.9706 H   0  0  0  0  0  0  0  0  0  0  0  0
   -2.4637   -0.5909   -0.6588 H   0  0  0  0  0  0  0  0  0  0  0  0
    0.0240    1.5716    2.0646 H   0  0  0  0  0  0  0  0  0  0  0  0
   -0.8260    0.2462    2.8426 H   0  0  0  0  0  0  0  0  0  0  0  0
    1.9970    3.7687   -0.0130 H   0  0  0  0  0  0  0  0  0  0  0  0
    0.3277    3.0747   -0.2394 H   0  0  0  0  0  0  0  0  0  0  0  0
    0.5652    3.2656   -2.7512 H   0  0  0  0  0  0  0  0  0  0  0  0
    2.2600    3.9448   -2.5271 H   0  0  0  0  0  0  0  0  0  0  0  0
    1.0373   -2.2292   -1.1522 H   0  0  0  0  0  0  0  0  0  0  0  0
   -0.1420   -1.2765   -2.0675 H   0  0  0  0  0  0  0  0  0  0  0  0
    2.1808    0.8812    0.5810 H   0  0  0  0  0  0  0  0  0  0  0  0
    2.5716   -0.8333    0.4741 H   0  0  0  0  0  0  0  0  0  0  0  0
   -1.3380   -2.6684   -0.6118 H   0  0  0  0  0  0  0  0  0  0  0  0
    1.5693   -0.1332    2.5781 H   0  0  0  0  0  0  0  0  0  0  0  0
    0.8619   -2.2417    2.7845 H   0  0  0  0  0  0  0  0  0  0  0  0
  1  3  1  0  0  0  0
  1  5  2  0  0  0  0
  1 24  1  0  0  0  0
  2  4  2  0  0  0  0
  2  5  1  0  0  0  0
  2 25  1  0  0  0  0
  3  6  2  0  0  0  0
  3 26  1  0  0  0  0
  4  6  1  0  0  0  0
  4 27  1  0  0  0  0
  5 18  1  0  0  0  0
  6 23  1  0  0  0  0
  7 16  1  0  0  0  0
  7 19  1  0  0  0  0
  7 21  2  0  0  0  0
  8 18  1  0  0  0  0
  8 20  1  0  0  0  0
  8 22  2  0  0  0  0
  9 10  1  0  0  0  0
  9 11  1  0  0  0  0
  9 28  1  0  0  0  0
  9 29  1  0  0  0  0
 10 16  1  0  0  0  0
 10 30  1  0  0  0  0
 10 31  1  0  0  0  0
 11 17  1  0  0  0  0
 11 32  1  0  0  0  0
 11 33  1  0  0  0  0
 12 13  1  0  0  0  0
 12 18  1  0  0  0  0
 12 34  1  0  0  0  0
 12 35  1  0  0  0  0
 13 18  1  0  0  0  0
 13 36  1  0  0  0  0
 13 37  1  0  0  0  0
 14 16  1  0  0  0  0
 14 20  1  0  0  0  0
 14 38  1  0  0  0  0
 14 39  1  0  0  0  0
 15 17  1  0  0  0  0
 15 20  1  0  0  0  0
 15 40  1  0  0  0  0
 15 41  1  0  0  0  0
 16 42  1  0  0  0  0
 17 19  1  0  0  0  0
 17 43  1  0  0  0  0
 19 44  1  0  0  0  0
M  END
$$$$
