51
0 1 C20H26N4O
C                    -1.860729707141     2.282327249381    -3.119824471163
C                    -3.385068563017     0.903165457157    -4.408131002572
C                    -2.264448113593     0.985161042608    -3.563214922675
C                    -3.779629457295    -0.300366043710    -4.977299029361
C                    -2.972592533026    -1.425796264179    -4.685964738861
C                    -1.558159783226    -0.223589590210    -3.271126332395
C                    -0.265237477139    -0.532110895041     0.745212759155
C                     1.223778889885     1.952554939201     1.068318923469
C                    -0.279472211812    -2.354122848845     3.837462837766
C                    -1.484507549643    -2.051184067247     4.703447684964
C                     1.811789721207     0.841266328799     0.203258554150
C                     1.247705468129    -1.252721094400    -1.151086499094
C                     0.486422057470     1.337176099731     2.250175495124
C                     0.174492158180    -1.596106165527    -2.184992753381
C                    -0.154049862611     0.699283796841    -1.417586339053
C                    -0.727606064962    -0.922322518866     4.036813693387
C                     0.697645141399    -0.050865714722    -0.354647025816
C                    -4.984595028403    -0.396249260627    -5.881009152746
C                    -3.280479211504    -2.769172341697    -5.298552030959
C                    -1.375522799300    -0.180105479527     2.884715312215
N                    -1.553734872183     3.363819838422    -2.802358251102
N                    -1.918864866792    -1.379702389079    -3.869611189414
N                    -0.497607821224    -0.306811083463    -2.421171305388
N                    -0.424925881683     0.258692814485     1.854077690306
O                    -0.930690059425    -1.560894729804     0.579030932186
H                    -3.933701333678     1.816313069794    -4.624715249615
H                     2.008948137435     2.614591111081     1.448007789667
H                     0.539653458912     2.570077105127     0.475953932098
H                     0.633549911742    -2.676452646690     4.330217230826
H                    -0.456486550288    -2.792175542750     2.860635230246
H                    -2.464805067386    -2.303464836179     4.308194838566
H                    -1.390689362123    -2.165574336339     5.779433957582
H                     2.394500001371     1.254664958090    -0.627345684663
H                     2.499704791273     0.231661733466     0.804196555007
H                     1.475289589556    -2.103937251244    -0.506568230763
H                     2.171902454386    -0.941634581873    -1.650973047348
H                     1.216674913378     0.946377316748     2.973707086067
H                    -0.104705198989     2.098143665680     2.772010753003
H                     0.589376791163    -1.981811697233    -3.119921548723
H                    -0.538508875064    -2.324246889975    -1.794810737021
H                    -1.055372909933     1.139400107240    -0.984211815111
H                     0.431878508216     1.515743874952    -1.854864582110
H                    -0.113113597320    -0.313658260853     4.697108814035
H                    -4.713020664750    -0.737122004736    -6.886988418413
H                    -5.726786688403    -1.103489750132    -5.492894674082
H                    -5.474747340699     0.576059702692    -5.981565861699
H                    -3.280755653679    -2.714607355474    -6.393325401623
H                    -2.537825267584    -3.500428147173    -4.977487982668
H                    -4.275163014981    -3.118834359435    -4.997961790739
H                    -1.897521149596     0.710299662960     3.256303152664
H                    -2.106955450508    -0.821494003330     2.393246946779
