23
0 1 C9FH11OS
C                     1.753907121963    -1.458381911999    -0.250509300593
C                     0.692403016698    -0.887871854761     0.461163392017
C                     1.899253257734    -1.260096618193     2.527604093341
C                     2.965396320931    -1.823349936047     1.824430468285
C                     2.875289041518    -1.911889676143     0.428308684045
C                     0.759866401091    -0.783323361020     1.857712000012
C                     5.666778093257    -0.503884423871     2.042150440750
C                    -1.821954649204     0.329407109112     1.679399357000
C                     4.939316969933    -1.355723718631     3.074560711062
O                     4.067062055428    -2.332604381459     2.465003011413
F                     3.908490950354    -2.444518794426    -0.267805341304
S                    -0.519594705694    -0.083552625893     2.880566642259
H                     1.718622024773    -1.545582706749    -1.332474106209
H                    -0.172438664847    -0.534770227487    -0.088255968816
H                     1.960933105638    -1.213898415806     3.611997129132
H                     6.231546868807    -1.136131580697     1.351593670422
H                     4.962942314050     0.100331618135     1.461402011009
H                     6.361900604558     0.177124280334     2.545755654849
H                    -2.643044514607     0.747652498934     2.266037253924
H                    -2.180753853420    -0.560059950351     1.155377385425
H                    -1.485162729239     1.081550052394     0.961518727778
H                     4.363434134141    -0.727362378856     3.765951041332
H                     5.643044114351    -1.950810628237     3.661258918312
