21
0 1 C10F3H7O
C                     2.191620967825    -0.790930378675     0.022081607191
C                     1.333269523058    -1.542900201633     2.576936453593
C                     1.087746876285    -0.131274583474     0.590126746398
C                     2.861420904942    -1.784623694708     0.717522921302
C                     0.685072822225    -0.531529572708     1.872425396639
C                     2.430378623721    -2.161895120654     1.990863067043
C                     0.414685149050     0.996835591477    -0.138343967667
C                     0.705306997688     2.181400957772    -2.409893507133
C                    -0.717863801386     1.738710062657    -2.324720836960
C                     0.353482846536     0.910065853899    -1.626490340898
O                    -0.039204199488     1.958126714845     0.470731265243
F                     3.933435829596    -2.396756889257     0.173049166011
F                    -0.385934194471     0.034986138525     2.455461120789
F                     3.083357557217    -3.135076205058     2.648760829714
H                     2.559692875510    -0.511117895333    -0.959539578552
H                     0.989217302347    -1.842760071466     3.561036326557
H                     1.246890302387     2.045803583873    -3.340996081361
H                     1.002906010807     3.034425852905    -1.808559390675
H                    -1.377086724337     2.295320618986    -1.666855920319
H                    -1.179162170635     1.291878900922    -3.199724874701
H                     0.615733975588    -0.038051386934    -2.082555983633
