
  -OEChem-05262117483D

 51 54  0     1  0  0  0  0  0999 V2000
   -1.5572    1.8841   -3.0654 C   0  0  0  0  0  0  0  0  0  0  0  0
   -3.4518    0.6976   -4.0096 C   0  0  0  0  0  0  0  0  0  0  0  0
   -2.2445    0.6515   -3.2907 C   0  0  0  0  0  0  0  0  0  0  0  0
   -4.1252   -0.4607   -4.3740 C   0  0  0  0  0  0  0  0  0  0  0  0
   -3.5104   -1.6833   -4.0130 C   0  0  0  0  0  0  0  0  0  0  0  0
   -1.7466   -0.6321   -2.9042 C   0  0  0  0  0  0  0  0  0  0  0  0
   -0.3210   -0.6970    0.9599 C   0  0  0  0  0  0  0  0  0  0  0  0
    1.6367    1.4751    0.9343 C   0  0  0  0  0  0  0  0  0  0  0  0
   -3.2679    1.0665    1.1971 C   0  0  0  0  0  0  0  0  0  0  0  0
   -2.4957    2.3156    1.5672 C   0  0  0  0  0  0  0  0  0  0  0  0
    1.9830    0.1394    0.2792 C   0  0  0  0  0  0  0  0  0  0  0  0
    0.9726   -1.9484   -0.8217 C   0  0  0  0  0  0  0  0  0  0  0  0
    0.7530    1.2427    2.1533 C   0  0  0  0  0  0  0  0  0  0  0  0
   -0.1914   -2.1869   -1.7886 C   0  0  0  0  0  0  0  0  0  0  0  0
    0.0039    0.2007   -1.3254 C   0  0  0  0  0  0  0  0  0  0  0  0
   -2.6006    1.1646    2.5481 C   0  0  0  0  0  0  0  0  0  0  0  0
    0.7070   -0.5741   -0.1771 C   0  0  1  0  0  0  0  0  0  0  0  0
   -5.4240   -0.4183   -5.1415 C   0  0  0  0  0  0  0  0  0  0  0  0
   -4.1270   -2.9997   -4.4146 C   0  0  0  0  0  0  0  0  0  0  0  0
   -1.4096    0.2848    2.9090 C   0  0  0  0  0  0  0  0  0  0  0  0
   -1.0167    2.9102   -2.9255 N   0  0  0  0  0  0  0  0  0  0  0  0
   -2.3789   -1.7542   -3.3105 N   0  0  0  0  0  0  0  0  0  0  0  0
   -0.6335   -0.8262   -2.1439 N   0  0  2  0  0  0  0  0  0  0  0  0
   -0.3456    0.3009    1.9005 N   0  0  0  0  0  0  0  0  0  0  0  0
   -1.1563   -1.6063    0.9567 O   0  0  0  0  0  0  0  0  0  0  0  0
   -3.8436    1.6708   -4.2944 H   0  0  0  0  0  0  0  0  0  0  0  0
    2.5410    2.0041    1.2525 H   0  0  0  0  0  0  0  0  0  0  0  0
    1.1243    2.1230    0.2149 H   0  0  0  0  0  0  0  0  0  0  0  0
   -4.3519    1.1234    1.1579 H   0  0  0  0  0  0  0  0  0  0  0  0
   -2.8284    0.3932    0.4691 H   0  0  0  0  0  0  0  0  0  0  0  0
   -1.5508    2.4783    1.0586 H   0  0  0  0  0  0  0  0  0  0  0  0
   -3.0506    3.2245    1.7813 H   0  0  0  0  0  0  0  0  0  0  0  0
    2.6444    0.2870   -0.5819 H   0  0  0  0  0  0  0  0  0  0  0  0
    2.5233   -0.4967    0.9926 H   0  0  0  0  0  0  0  0  0  0  0  0
    1.0457   -2.7445   -0.0784 H   0  0  0  0  0  0  0  0  0  0  0  0
    1.9211   -1.8976   -1.3681 H   0  0  0  0  0  0  0  0  0  0  0  0
    1.3623    0.8549    2.9843 H   0  0  0  0  0  0  0  0  0  0  0  0
    0.3159    2.1865    2.4921 H   0  0  0  0  0  0  0  0  0  0  0  0
    0.1060   -2.7350   -2.6871 H   0  0  0  0  0  0  0  0  0  0  0  0
   -1.0067   -2.7279   -1.3070 H   0  0  0  0  0  0  0  0  0  0  0  0
   -0.7337    0.9107   -0.9482 H   0  0  0  0  0  0  0  0  0  0  0  0
    0.7445    0.7715   -1.8995 H   0  0  0  0  0  0  0  0  0  0  0  0
   -3.2687    1.3274    3.3919 H   0  0  0  0  0  0  0  0  0  0  0  0
   -5.3399   -0.9206   -6.1123 H   0  0  0  0  0  0  0  0  0  0  0  0
   -6.2343   -0.9137   -4.5939 H   0  0  0  0  0  0  0  0  0  0  0  0
   -5.7332    0.6139   -5.3279 H   0  0  0  0  0  0  0  0  0  0  0  0
   -4.2328   -3.0711   -5.5034 H   0  0  0  0  0  0  0  0  0  0  0  0
   -3.5039   -3.8223   -4.0619 H   0  0  0  0  0  0  0  0  0  0  0  0
   -5.1320   -3.1086   -3.9903 H   0  0  0  0  0  0  0  0  0  0  0  0
   -1.7400   -0.7475    3.0413 H   0  0  0  0  0  0  0  0  0  0  0  0
   -0.9738    0.6261    3.8550 H   0  0  0  0  0  0  0  0  0  0  0  0
  1  3  1  0  0  0  0
  1 21  3  0  0  0  0
  2  3  1  0  0  0  0
  2  4  2  0  0  0  0
  2 26  1  0  0  0  0
  3  6  2  0  0  0  0
  4  5  1  0  0  0  0
  4 18  1  0  0  0  0
  5 19  1  0  0  0  0
  5 22  2  0  0  0  0
  6 22  1  0  0  0  0
  6 23  1  0  0  0  0
  7 17  1  0  0  0  0
  7 24  1  0  0  0  0
  7 25  2  0  0  0  0
  8 11  1  0  0  0  0
  8 13  1  0  0  0  0
  8 27  1  0  0  0  0
  8 28  1  0  0  0  0
  9 10  1  0  0  0  0
  9 16  1  0  0  0  0
  9 29  1  0  0  0  0
  9 30  1  0  0  0  0
 10 16  1  0  0  0  0
 10 31  1  0  0  0  0
 10 32  1  0  0  0  0
 11 17  1  0  0  0  0
 11 33  1  0  0  0  0
 11 34  1  0  0  0  0
 12 14  1  0  0  0  0
 12 17  1  0  0  0  0
 12 35  1  0  0  0  0
 12 36  1  0  0  0  0
 13 24  1  0  0  0  0
 13 37  1  0  0  0  0
 13 38  1  0  0  0  0
 14 23  1  0  0  0  0
 14 39  1  0  0  0  0
 14 40  1  0  0  0  0
 15 17  1  0  0  0  0
 15 23  1  0  0  0  0
 15 41  1  0  0  0  0
 15 42  1  0  0  0  0
 16 20  1  0  0  0  0
 16 43  1  0  0  0  0
 18 44  1  0  0  0  0
 18 45  1  0  0  0  0
 18 46  1  0  0  0  0
 19 47  1  0  0  0  0
 19 48  1  0  0  0  0
 19 49  1  0  0  0  0
 20 24  1  0  0  0  0
 20 50  1  0  0  0  0
 20 51  1  0  0  0  0
M  END
$$$$
