21   
torsion grid (-165,)
C        1.0411774513   -5.4009058531   -1.7674598112
C        0.6834510182   -4.2507618172   -1.0067031091
C        1.8001038391   -4.9468993138   -2.8171312512
C        1.2475872839   -3.1610833806   -1.6450277553
C       -0.7166300888   -0.7351268289    1.2670472904
C        0.5962541142   -1.1150000339   -0.3966659822
C        0.3720732716    0.3576410003   -0.3744606862
C        1.2538851697   -1.7559785709   -1.4015437925
C       -1.0059848991    1.7953818543    1.1879544063
N       -0.1213333717   -1.7163605238    0.6529259167
N       -0.4912767831    0.5186281668    0.7275006350
O        0.7811010798    1.2579882373   -1.0980561061
O        1.9403749107   -3.5975212122   -2.7616834564
H        0.7742984283   -6.4310368949   -1.5712751312
H        0.0909484421   -4.1922682421   -0.1049876927
H        2.2849209346   -5.4390881788   -3.6486430257
H       -1.3500234078   -0.8574179625    2.1411398026
H        1.7480607633   -1.1305572441   -2.1416451282
H       -0.6853199046    2.0020282110    2.2139059674
H       -2.0990705531    1.8199146210    1.1370405508
H       -0.6021116703    2.5643962754    0.5267830661
21   
torsion grid (-150,)
C        0.9017290025   -5.3671249519   -1.8063228960
C        0.6609619691   -4.2282648241   -0.9853197161
C        1.6804003107   -4.9310600503   -2.8492895602
C        1.3064524326   -3.1616091865   -1.5854565411
C       -0.5960158453   -0.7576844111    1.3305436437
C        0.8021876782   -1.1112429650   -0.2722272151
C        0.4293070486    0.3303958216   -0.3545585370
C        1.4309077286   -1.7736754691   -1.2847016679
C       -1.1243930942    1.7219181752    1.0773437175
N        0.1077083329   -1.7120195683    0.7938794100
N       -0.4819985909    0.4727951124    0.7105840898
O        0.7581077830    1.2175846908   -1.1332529139
O        1.9422419518   -3.6039290324   -2.7332512639
H        0.5461451671   -6.3777111067   -1.6541869480
H        0.0922621618   -4.1619956803   -0.0689588327
H        2.1016460088   -5.4221143191   -3.7154055520
H       -1.2339883117   -0.8844833937    2.2006697903
H        1.9102413689   -1.1596390633   -2.0444734467
H       -0.8424860735    2.0272770535    2.0900532996
H       -2.2135999499    1.6361156573    1.0135927858
H       -0.7855060138    2.4802361338    0.3690689214
21   
torsion grid (-135,)
C        0.7611668064   -5.2831457747   -1.8331721711
C        0.6362207386   -4.1690157928   -0.9550308215
C        1.5625202517   -4.8688544327   -2.8680755917
C        1.3663224332   -3.1354595066   -1.5167943199
C       -0.4721266318   -0.7759169135    1.3969329585
C        1.0058006879   -1.0853997278   -0.1486030176
C        0.4940351009    0.3063718867   -0.3267244203
C        1.6121987684   -1.7785442787   -1.1590773845
C       -1.2213980167    1.6233083037    0.9816754115
N        0.3315564575   -1.6873299124    0.9308660572
N       -0.4594550568    0.4189353332    0.7041272576
O        0.7479818705    1.1729317826   -1.1551043325
O        1.9465482019   -3.5783991138   -2.6932004451
H        0.3161080497   -6.2633539629   -1.7238301422
H        0.0897539015   -4.0974711779   -0.0256250377
H        1.9220225596   -5.3516002090   -3.7661236880
H       -1.1136579645   -0.9104558962    2.2632721944
H        2.0881216935   -1.1781008679   -1.9328946492
H       -0.9843969664    2.0201340836    1.9740287257
H       -2.2963419441    1.4294351942    0.9147414552
H       -0.9456164687    2.3619477811    0.2268338823
21   
torsion grid (-120,)
C        0.5733226973   -5.1813330183   -1.8186567914
C        0.5378093067   -4.0883050292   -0.9073409942
C        1.4050725717   -4.8007959285   -2.8429486046
C        1.3441155419   -3.0970377407   -1.4433768332
C       -0.4816479915   -0.7646253192    1.4107617926
C        1.0756872977   -1.0277045255   -0.0717171518
C        0.4170231033    0.2822663719   -0.3704043382
C        1.6839466946   -1.7716052012   -1.0516371567
C       -1.4506138895    1.5107727769    0.8019853986
N        0.4268859201   -1.6158995430    1.0315597819
N       -0.5798659910    0.3626020882    0.6215517479
O        0.5916382699    1.1047411808   -1.2618553170
O        1.8915961879   -3.5510764811   -2.6307653266
H        0.0515372099   -6.1258580743   -1.7381748497
H        0.0011876981   -4.0032056884    0.0267281256
H        1.7215792201   -5.2819887359   -3.7578496889
H       -1.1250081265   -0.8980166067    2.2759208141
H        2.1623726139   -1.1953573199   -1.8439731052
H       -1.1534407871    2.1042458107    1.6731756255
H       -2.4889393714    1.1879818300    0.9190026271
H       -1.3657318275    2.1291088071   -0.0933728618
21   
torsion grid (-105,)
C        0.4372610230   -5.0515188000   -1.8461564139
C        0.4940470648   -3.9977433033   -0.8919143662
C        1.3119972063   -4.7094788594   -2.8485969460
C        1.3912463666   -3.0616982023   -1.3850158413
C       -0.3623536324   -0.7661767144    1.4618917553
C        1.2376630378   -0.9847004037    0.0090996343
C        0.4558161703    0.2319351950   -0.3854948105
C        1.8321133866   -1.7846959378   -0.9451809705
C       -1.5135065825    1.3733920686    0.7010271765
N        0.6185623737   -1.5585886299    1.1374317739
N       -0.5507792078    0.2905670945    0.5978590020
O        0.5484625770    0.9941626340   -1.3406037871
O        1.9092496719   -3.5192615032   -2.5835671694
H       -0.1708061894   -5.9457459175   -1.8081141065
H       -0.0409739283   -3.9030943413    0.0422820335
H        1.5907948148   -5.1802624894   -3.7810022249
H       -0.9940704348   -0.8934039118    2.3365119581
H        2.3300421592   -1.2264614724   -1.7408394535
H       -1.2673356824    2.0491560576    1.5269844985
H       -2.5212235859    0.9740582185    0.8456364528
H       -1.4797324758    1.9313412757   -0.2363100012
21   
torsion grid (-90,)
C        0.3129012926   -4.9080319521   -1.8734434251
C        0.4435451788   -3.8988541316   -0.8807455478
C        1.2317411418   -4.6070249110   -2.8502074073
C        1.4236593512   -3.0222755140   -1.3284256590
C       -0.2535921063   -0.7473700183    1.5187380490
C        1.3705469173   -0.9368447698    0.0757612718
C        0.4795650360    0.1738479514   -0.4017709868
C        1.9564152976   -1.8024131932   -0.8388934748
C       -1.5713975442    1.2316888681    0.6097113654
N        0.7850397801   -1.4816467993    1.2377659148
N       -0.5255595677    0.2236702540    0.5835686506
O        0.4937616084    0.8608593890   -1.4167179988
O        1.9248986960   -3.4836430418   -2.5324031103
H       -0.3700393188   -5.7473276556   -1.8780764727
H       -0.0959823748   -3.7943430940    0.0500240106
H        1.4829392868   -5.0651132249   -3.7966810179
H       -0.8648777939   -0.8560515877    2.4101766442
H        2.4929904002   -1.2815389654   -1.6371404386
H       -1.3812086619    1.9846735660    1.3818344100
H       -2.5437326322    0.7643723253    0.7887638399
H       -1.5812868761    1.7182072917   -0.3670435684
21   
torsion grid (90,)
C        1.6111188951   -4.8948530112   -1.0276531473
C        0.6259268646   -3.8915719982   -0.8186498718
C        2.2247141794   -4.5878664279   -2.2185525356
C        0.7162967491   -3.0122432035   -1.8901496262
C       -1.4272164276   -0.7530638971    0.6402336575
C       -0.6030347287   -0.9354074920   -1.3703113313
C        0.1360090426    0.1789944259   -0.6868961769
C        0.0701854925   -1.7958751782   -2.2280785288
C       -0.1367207988    1.2244448323    1.5907093459
N       -1.5016684762   -1.4872061543   -0.4332816572
N       -0.4639005542    0.2271419201    0.5863306081
O        1.0849312216    0.8715735592   -1.0366261542
O        1.6879794352   -3.4662436052   -2.7638516139
H        1.8475661686   -5.7340931105   -0.3868594112
H       -0.0728430991   -3.7927615255    0.0000547107
H        3.0364326999   -5.0400324063   -2.7712077998
H       -2.0655980823   -0.8661643727    1.5119112691
H        0.6400220178   -1.2701243519   -2.9996361917
H        0.1652232790    0.7441173599    2.5262042291
H       -0.9858946394    1.8890659486    1.7796612186
H        0.6990332254    1.8110486205    1.2057513519
21   
torsion grid (105,)
C        1.5417936224   -5.0369186154   -1.1319648346
C        0.6144638489   -3.9901342902   -0.8705189833
C        2.2004235359   -4.6868364672   -2.2856009411
C        0.7801964812   -3.0503290673   -1.8773980646
C       -1.3389281593   -0.7725046442    0.7191301564
C       -0.4997113414   -0.9820048013   -1.2722683546
C        0.1227949661    0.2391478952   -0.6657932861
C        0.2101530497   -1.7775078990   -2.1482915972
C       -0.2355652570    1.3606743783    1.5658912854
N       -1.3544215449   -1.5639968356   -0.3144989641
N       -0.4740364597    0.2945558715    0.6087645801
O        0.9876202586    1.0077121387   -1.0699085240
O        1.7461664982   -3.4989439228   -2.7606722945
H        1.7111379808   -5.9316746865   -0.5475191212
H       -0.0943310420   -3.9021460249   -0.0594802425
H        2.9939954319   -5.1504103482   -2.8548940112
H       -1.9525310337   -0.9055177868    1.6056978150
H        0.7915125869   -1.2164484124   -2.8829487524
H        0.1292111168    0.9550490421    2.5143526405
H       -1.1457076888    1.9423258932    1.7443867035
H        0.5285824529    2.0134937855    1.1405319724
21   
torsion grid (120,)
C        1.4741983824   -5.1696971241   -1.2542275263
C        0.6196433168   -4.0820549642   -0.9177212531
C        2.1633489180   -4.7816211134   -2.3768177235
C        0.8517398954   -3.0869300859   -1.8536790344
C       -1.2478706177   -0.7709831854    0.8174946039
C       -0.3656154350   -1.0257490818   -1.1444389946
C        0.1265430032    0.2864748765   -0.6203469107
C        0.3619543666   -1.7641414260   -2.0437786947
C       -0.3548556682    1.5022864627    1.5402133454
N       -1.1865290182   -1.6207083023   -0.1664435693
N       -0.4809434523    0.3632568216    0.6482030311
O        0.9035943480    1.1145804656   -1.0808770594
O        1.7948438652   -3.5331689041   -2.7630789733
H        1.5764894035   -6.1148050783   -0.7373235781
H       -0.0852581575   -4.0031340078   -0.1025250775
H        2.9253751388   -5.2564966237   -2.9789580992
H       -1.8496430912   -0.9094131609    1.7113194395
H        0.9461669091   -1.1826823669   -2.7574928747
H        0.0283290499    1.1899043161    2.5163015960
H       -1.3158306583    2.0100983930    1.6718647948
H        0.3548376231    2.1944672269    1.0836609832
21   
torsion grid (135,)
C        1.4096094339   -5.2835956283   -1.3795949189
C        0.6371399539   -4.1641669595   -0.9576162263
C        2.1198494644   -4.8687077315   -2.4788891011
C        0.9329916797   -3.1275598523   -1.8264830584
C       -1.1636156488   -0.7656919820    0.9064103998
C       -0.2117998062   -1.0708857952   -1.0099085265
C        0.1433735470    0.3136966365   -0.5769863958
C        0.5281147408   -1.7653223455   -1.9262481621
C       -0.4958786084    1.6230308965    1.4886190743
N       -1.0062525422   -1.6716272277   -0.0147659809
N       -0.5024246278    0.4237105326    0.6702033921
O        0.8454631707    1.1772981515   -1.0895865278
O        1.8413025188   -3.5727921561   -2.7719065288
H        1.4450323065   -6.2678696194   -0.9315222622
H       -0.0538362505   -4.0911972288   -0.1300782080
H        2.8393742921   -5.3547487344   -3.1229453859
H       -1.7641299638   -0.9006558696    1.8016201417
H        1.1028160771   -1.1656566034   -2.6304507728
H       -0.0955105880    1.4125831396    2.4850097575
H       -1.5024860376    2.0432204394    1.5822970325
H        0.1490132271    2.3503033363    0.9920139229
21   
torsion grid (150,)
C        1.3368223460   -5.3687433703   -1.5012003426
C        0.6576785910   -4.2258835515   -0.9896716001
C        2.0607259154   -4.9320892733   -2.5826650700
C        1.0163813145   -3.1569445884   -1.7917413044
C       -1.0610179176   -0.7506008000    1.0001538328
C       -0.0276395683   -1.1017958394   -0.8594621483
C        0.1912724781    0.3351384616   -0.5257169447
C        0.7064482375   -1.7654619325   -1.7974811132
C       -0.6192874271    1.7217519107    1.4288796047
N       -0.8035191716   -1.7015292370    0.1495999927
N       -0.5020129653    0.4759717132    0.6928320537
O        0.8228653528    1.2197554892   -1.0915015373
O        1.8778012272   -3.6013991301   -2.7804929674
H        1.3025139906   -6.3818347138   -1.1225794668
H       -0.0125316142   -4.1584751498   -0.1448120021
H        2.7287545097   -5.4252722279   -3.2749352307
H       -1.6662707733   -0.8773520809    1.8933602677
H        1.2667678030   -1.1524298511   -2.5005377298
H       -0.2218491439    1.6156231078    2.4429518739
H       -1.6612505083    2.0537936784    1.4796943992
H       -0.0328917988    2.4705682946    0.8931914620
21   
torsion grid (165,)
C        1.2549555836   -5.4062815523   -1.6103243655
C        0.6700769376   -4.2547543361   -1.0091570339
C        1.9942599255   -4.9514107012   -2.6735633514
C        1.0934487912   -3.1636491575   -1.7463294504
C       -0.9659906645   -0.7392031872    1.1005300990
C        0.1563502890   -1.1150650002   -0.6984759911
C        0.2236641313    0.3550585473   -0.4688026417
C        0.8749752615   -1.7572192398   -1.6600508414
C       -0.7678259758    1.7872294891    1.3677956739
N       -0.5957058139   -1.7178053359    0.3259698583
N       -0.5245495758    0.5139048877    0.7147383296
O        0.7771681156    1.2550482668   -1.0894280619
O        1.9086209904   -3.6003089819   -2.7769392303
H        1.1490117563   -6.4378389392   -1.3012191410
H        0.0200325548   -4.1962600523   -0.1479960843
H        2.6104398791   -5.4441287255   -3.4126549983
H       -1.5768553564   -0.8628502532    1.9903417317
H        1.4105672271   -1.1297488933   -2.3690533452
H       -0.3803257835    1.7831039360    2.3913338410
H       -1.8363979542    2.0242754547    1.3847628675
H       -0.2431858590    2.5516758901    0.7915729157
21   
torsion grid (180,)
C        1.1489440928   -5.4228176339   -1.6942351578
C        0.6758084913   -4.2671405704   -1.0085259758
C        1.8952243751   -4.9643291740   -2.7509624933
C        1.1653283413   -3.1702940379   -1.6940479143
C       -0.8473668101   -0.7332876908    1.1958809400
C        0.3671647944   -1.1233862720   -0.5374081975
C        0.2901811325    0.3585150630   -0.4129052927
C        1.0559228839   -1.7584930615   -1.5241060281
C       -0.8968777611    1.8130012969    1.2858400994
N       -0.3666794735   -1.7237480876    0.5011376112
N       -0.5124186534    0.5269483283    0.7332734012
O        0.7700654380    1.2615370335   -1.0879008201
O        1.9186623727   -3.6069294926   -2.7707425615
H        0.9656180400   -6.4595538193   -1.4443711084
H        0.0558099976   -4.2096532095   -0.1254206057
H        2.4457677796   -5.4584652161   -3.5392673551
H       -1.4685353434   -0.8530283164    2.0790513409
H        1.5688494394   -1.1292727066   -2.2478977115
H       -0.5494596500    1.9160657824    2.3185792225
H       -1.9826819364    1.9479428225    1.2525882024
H       -0.4243280133    2.5827133633    0.6726526195
