
  -OEChem-05262117483D

 25 25  0     0  0  0  0  0  0999 V2000
    5.2393    1.7395   -4.5552 C   0  0  0  0  0  0  0  0  0  0  0  0
    4.3974    0.9475   -3.8247 C   0  0  0  0  0  0  0  0  0  0  0  0
    5.7866   -0.6260   -4.5433 C   0  0  0  0  0  0  0  0  0  0  0  0
    2.7963    2.7998   -3.0199 C   0  0  0  0  0  0  0  0  0  0  0  0
    1.1376    4.3142   -2.2777 C   0  0  0  0  0  0  0  0  0  0  0  0
    8.1986   -1.8401   -2.7541 C   0  0  0  0  0  0  0  0  0  0  0  0
    3.1808    1.3346   -3.0295 C   0  0  0  0  0  0  0  0  0  0  0  0
    4.7275   -0.4005   -3.8149 N   0  0  0  0  0  0  0  0  0  0  0  0
    6.2707   -1.9242   -4.7646 N   0  0  0  0  0  0  0  0  0  0  0  0
    3.4255    3.7282   -3.4902 O   0  0  0  0  0  0  0  0  0  0  0  0
    7.9882   -3.7542   -4.5977 O   0  0  0  0  0  0  0  0  0  0  0  0
    8.6963   -1.3969   -5.3161 O   0  0  0  0  0  0  0  0  0  0  0  0
    1.6146    2.9547   -2.3787 O   0  0  0  0  0  0  0  0  0  0  0  0
    6.4852    0.7838   -5.3069 S   0  0  0  0  0  0  0  0  0  0  0  0
    7.9146   -2.3011   -4.4783 S   0  0  0  0  0  0  0  0  0  0  0  0
    5.2074    2.8125   -4.6702 H   0  0  0  0  0  0  0  0  0  0  0  0
    0.1931    4.2498   -1.7382 H   0  0  0  0  0  0  0  0  0  0  0  0
    0.9858    4.7382   -3.2728 H   0  0  0  0  0  0  0  0  0  0  0  0
    1.8547    4.9292   -1.7294 H   0  0  0  0  0  0  0  0  0  0  0  0
    9.2560   -2.0209   -2.5535 H   0  0  0  0  0  0  0  0  0  0  0  0
    7.9635   -0.7819   -2.6336 H   0  0  0  0  0  0  0  0  0  0  0  0
    7.5713   -2.4650   -2.1177 H   0  0  0  0  0  0  0  0  0  0  0  0
    2.3176    0.7606   -3.3829 H   0  0  0  0  0  0  0  0  0  0  0  0
    3.3135    1.0247   -1.9859 H   0  0  0  0  0  0  0  0  0  0  0  0
    5.6504   -2.6350   -4.3777 H   0  0  0  0  0  0  0  0  0  0  0  0
  1  2  2  0  0  0  0
  1 14  1  0  0  0  0
  1 16  1  0  0  0  0
  2  7  1  0  0  0  0
  2  8  1  0  0  0  0
  3  8  2  0  0  0  0
  3  9  1  0  0  0  0
  3 14  1  0  0  0  0
  4  7  1  0  0  0  0
  4 10  2  0  0  0  0
  4 13  1  0  0  0  0
  5 13  1  0  0  0  0
  5 17  1  0  0  0  0
  5 18  1  0  0  0  0
  5 19  1  0  0  0  0
  6 15  1  0  0  0  0
  6 20  1  0  0  0  0
  6 21  1  0  0  0  0
  6 22  1  0  0  0  0
  7 23  1  0  0  0  0
  7 24  1  0  0  0  0
  9 15  1  0  0  0  0
  9 25  1  0  0  0  0
 11 15  2  0  0  0  0
 12 15  2  0  0  0  0
M  END
$$$$
