17
-1 1 C5H6N5O
C                     1.752799490560    -3.091408226462     1.314725428479
C                    -0.422028049068    -1.243529153956    -0.391658187940
C                    -0.457188382148     0.997541386873    -0.178576337308
C                    -1.023850019289    -3.621503570176    -0.917243571250
C                     0.041813932154    -2.656000312629    -0.400117138570
N                     2.901456283075    -3.146926207923     1.547773881409
N                    -1.736065875263     0.515755011729    -0.296797351978
N                    -1.681177752268    -0.856391562882    -0.417445871850
N                     0.395044826837    -0.142286417263    -0.236623420704
N                     0.451417238989    -3.099676980219     1.002450987199
O                    -0.035451063039     2.167431631929    -0.048685404070
H                    -1.947415236749    -3.508253302258    -0.344825830167
H                    -1.255970110179    -3.393898673251    -1.961210722587
H                    -0.665492429330    -4.652626749217    -0.837190134955
H                     0.955184603569    -2.764996810707    -0.996730168793
H                     1.401851693911    -0.107082728695    -0.164731759701
H                    -0.136639577832    -2.662680905034     1.708794441955
