25
0 1 C7H10N2O4S2
C                     4.399208339243     0.905479310969    -5.369993282779
C                     3.970356587086     0.076613911429    -4.373498962977
C                     5.718281683480    -1.116827481807    -5.033091463291
C                     1.982924223526    -1.100111070061    -3.519463683336
C                     1.064820628181    -2.759882387050    -4.933893475035
C                     5.649345233777    -4.013499341426    -3.261220531894
C                     2.738486614692     0.224786673729    -3.521983201871
N                     4.742083373499    -1.053370593328    -4.176760655245
N                     6.591998958041    -2.204051372254    -5.075933623808
O                     1.787899719692    -1.786950381067    -2.536585961015
O                     4.618639919520    -3.838327005318    -5.699905544456
O                     7.026407637129    -4.645290776129    -5.477329926575
O                     1.593952885247    -1.425790083390    -4.768186859785
S                     5.805520039229     0.231274471000    -6.155340894799
S                     5.914940948013    -3.806743746138    -5.024477828870
H                     3.981123417118     1.848046557092    -5.697443780321
H                     0.737560375138    -2.813961959018    -5.971708427996
H                     0.229523688198    -2.929587248342    -4.251494844552
H                     1.856467877931    -3.489540193769    -4.749248956817
H                     5.227668108577    -5.012422484081    -3.134141651645
H                     6.614296580660    -3.926376155805    -2.762516864043
H                     4.951232373809    -3.240588394001    -2.939726516536
H                     2.997143725590     0.454095653566    -2.485762331757
H                     2.099099719563     1.018965105080    -3.915783747874
H                     7.333721370150    -2.179235273578    -5.772777612077
