
  -OEChem-05262117483D

 21 21  0     1  0  0  0  0  0999 V2000
   -0.6419    1.7078    0.8054 C   0  0  0  0  0  0  0  0  0  0  0  0
   -1.7110    0.0965   -0.8720 C   0  0  0  0  0  0  0  0  0  0  0  0
   -0.2474   -0.8297    1.1063 C   0  0  0  0  0  0  0  0  0  0  0  0
   -0.5460    0.3371    0.1713 C   0  0  2  0  0  0  0  0  0  0  0  0
    0.7882   -0.3804    0.0910 C   0  0  0  0  0  0  0  0  0  0  0  0
    2.0524    0.2757    0.6308 C   0  0  0  0  0  0  0  0  0  0  0  0
    1.0823   -1.3060   -1.0803 C   0  0  0  0  0  0  0  0  0  0  0  0
   -1.8425    1.9134    1.4533 N   0  0  0  0  0  0  0  0  0  0  0  0
   -2.8761    0.1695   -0.3688 O   0  5  0  0  0  0  0  0  0  0  0  0
    0.2424    2.5734    0.7673 O   0  0  0  0  0  0  0  0  0  0  0  0
   -1.3873   -0.1336   -2.0572 O   0  0  0  0  0  0  0  0  0  0  0  0
   -0.0688   -0.6109    2.1583 H   0  0  0  0  0  0  0  0  0  0  0  0
   -0.7965   -1.7516    0.9251 H   0  0  0  0  0  0  0  0  0  0  0  0
    2.4897    0.9512   -0.1127 H   0  0  0  0  0  0  0  0  0  0  0  0
    2.7931   -0.5023    0.8682 H   0  0  0  0  0  0  0  0  0  0  0  0
    1.8672    0.8669    1.5286 H   0  0  0  0  0  0  0  0  0  0  0  0
    1.4782   -0.7392   -1.9303 H   0  0  0  0  0  0  0  0  0  0  0  0
    0.1885   -1.8179   -1.4348 H   0  0  0  0  0  0  0  0  0  0  0  0
    1.8352   -2.0488   -0.7761 H   0  0  0  0  0  0  0  0  0  0  0  0
   -2.0601    2.8954    1.5868 H   0  0  0  0  0  0  0  0  0  0  0  0
   -2.5863    1.3171    1.0542 H   0  0  0  0  0  0  0  0  0  0  0  0
  1  4  1  0  0  0  0
  1  8  1  0  0  0  0
  1 10  2  0  0  0  0
  2  4  1  0  0  0  0
  2  9  1  0  0  0  0
  2 11  2  0  0  0  0
  3  4  1  0  0  0  0
  3  5  1  0  0  0  0
  3 12  1  0  0  0  0
  3 13  1  0  0  0  0
  4  5  1  0  0  0  0
  5  6  1  0  0  0  0
  5  7  1  0  0  0  0
  6 14  1  0  0  0  0
  6 15  1  0  0  0  0
  6 16  1  0  0  0  0
  7 17  1  0  0  0  0
  7 18  1  0  0  0  0
  7 19  1  0  0  0  0
  8 20  1  0  0  0  0
  8 21  1  0  0  0  0
M  CHG  1   9  -1
M  END
$$$$
