17
-1 1 C5H6N5O
C                     1.103125109992    -4.200296457285     0.992886892298
C                    -0.318039054392    -0.963793687066     0.411824850975
C                    -0.955399655896     1.183543826732     0.636519580163
C                    -1.038299314153    -2.939897430192    -1.014678092327
C                     0.046372994912    -2.317219998712    -0.126355473835
N                     1.776709135133    -5.157632076256     0.900979759481
N                    -0.620426062912     0.672981255256     1.856241654674
N                    -0.231284186694    -0.647965863150     1.680955090373
N                    -0.755773945631     0.118136176980    -0.306308481532
N                     0.284335503839    -3.154788288994     1.072601205378
O                    -1.361785888088     2.316412807670     0.297120573419
H                    -1.981165153809    -3.006121359847    -0.464383086087
H                    -1.197299920618    -2.328841021306    -1.910549926448
H                    -0.740736930681    -3.944283459697    -1.336332152040
H                     0.978591683254    -2.255753446266    -0.710157626505
H                    -0.941665469947     0.194158992172    -1.295233148881
H                     0.319182839182    -2.563681776282     1.915698429117
