
  -OEChem-05262117483D

 11 10  0     1  0  0  0  0  0999 V2000
   -0.5932    0.4644    0.4502 C   0  0  0  0  0  0  0  0  0  0  0  0
   -0.9314   -0.8818    0.9199 N   0  0  0  0  0  0  0  0  0  0  0  0
    1.0184    1.5952   -1.5989 O   0  0  0  0  0  0  0  0  0  0  0  0
   -0.3289   -0.6460   -1.9627 O   0  0  0  0  0  0  0  0  0  0  0  0
    0.5442    0.3300   -0.9700 P   0  0  2  0  0  0  0  0  0  0  0  0
   -1.4372    1.1009    0.1413 H   0  0  0  0  0  0  0  0  0  0  0  0
   -0.0445    0.9985    1.2330 H   0  0  0  0  0  0  0  0  0  0  0  0
   -1.5387   -1.3457    0.2476 H   0  0  0  0  0  0  0  0  0  0  0  0
   -1.4291   -0.8351    1.8058 H   0  0  0  0  0  0  0  0  0  0  0  0
   -0.1828   -0.4081   -2.8948 H   0  0  0  0  0  0  0  0  0  0  0  0
    1.5569   -0.5388   -0.5082 H   0  0  0  0  0  0  0  0  0  0  0  0
  1  2  1  0  0  0  0
  1  5  1  0  0  0  0
  1  6  1  0  0  0  0
  1  7  1  0  0  0  0
  2  8  1  0  0  0  0
  2  9  1  0  0  0  0
  3  5  2  0  0  0  0
  4  5  1  0  0  0  0
  4 10  1  0  0  0  0
  5 11  1  0  0  0  0
M  END
$$$$
