
  -OEChem-05262117483D

 15 15  0     1  0  0  0  0  0999 V2000
    0.8036   -0.4828    0.5645 C   0  0  0  0  0  0  0  0  0  0  0  0
    2.9334   -1.6627    0.5247 C   0  0  0  0  0  0  0  0  0  0  0  0
    0.7059   -0.7628    1.9148 C   0  0  0  0  0  0  0  0  0  0  0  0
    1.9272   -0.9419   -0.1448 C   0  0  0  0  0  0  0  0  0  0  0  0
    2.7843   -1.8995    1.8752 C   0  0  0  0  0  0  0  0  0  0  0  0
    1.6925   -1.4523    2.5339 N   0  3  0  0  0  0  0  0  0  0  0  0
    4.3590   -4.0187    1.9342 O   0  0  0  0  0  0  0  0  0  0  0  0
    2.9747   -3.1616    4.0139 O   0  0  0  0  0  0  0  0  0  0  0  0
    4.1176   -2.8427    2.7851 S   0  0  2  0  0  0  0  0  0  0  0  0
    2.0698   -0.6319   -1.8206 Cl  0  0  0  0  0  0  0  0  0  0  0  0
    0.0154    0.0731    0.0689 H   0  0  0  0  0  0  0  0  0  0  0  0
    3.7977   -2.0492   -0.0071 H   0  0  0  0  0  0  0  0  0  0  0  0
   -0.1394   -0.4617    2.5239 H   0  0  0  0  0  0  0  0  0  0  0  0
    1.6023   -1.7281    3.5168 H   0  0  0  0  0  0  0  0  0  0  0  0
    3.4284   -3.5420    4.7937 H   0  0  0  0  0  0  0  0  0  0  0  0
  1  3  1  0  0  0  0
  1  4  2  0  0  0  0
  1 11  1  0  0  0  0
  2  4  1  0  0  0  0
  2  5  2  0  0  0  0
  2 12  1  0  0  0  0
  3  6  2  0  0  0  0
  3 13  1  0  0  0  0
  4 10  1  0  0  0  0
  5  6  1  0  0  0  0
  5  9  1  0  0  0  0
  6 14  1  0  0  0  0
  7  9  2  0  0  0  0
  8  9  1  0  0  0  0
  8 15  1  0  0  0  0
M  CHG  1   6   1
M  END
$$$$
