19
0 1 C7H8N2OS
C                     3.534310220949    -2.033265878181    -1.146672420309
C                     3.836615529800    -2.115636867237     0.185522179789
C                     1.595759628538    -1.315484316225    -0.354151239687
C                    -0.613720948436     0.548819093957     1.149004821783
C                     0.144737095135     0.823195519733    -0.165290777215
C                     0.203762320271    -0.741254174946    -0.328085536654
C                    -0.659308231609    -1.297601365069    -1.458202621468
N                     2.265061715736    -1.581950807436    -1.441713623629
N                    -0.414511033873    -0.815258147329     1.015881658267
O                    -1.189465240343     1.213600166238     1.982364803838
S                     2.478532442824    -1.607089667168     1.135792076474
H                     4.206220601451    -2.297445403073    -1.956249850282
H                     4.756335221763    -2.450053337162     0.647603583140
H                    -0.442826062849     1.340664928039    -0.925838779721
H                     1.110938183961     1.313566879644    -0.036364428196
H                    -1.647222906042    -0.827635152486    -1.439533910948
H                    -0.781425832086    -2.380141735570    -1.352124525124
H                    -0.183829844611    -1.107103025045    -2.422546647542
H                    -0.902024466422    -1.586140546834     1.465207721214
