
  -OEChem-05262117483D

 37 39  0     0  0  0  0  0  0999 V2000
    4.8422   -6.9046   10.8678 C   0  0  0  0  0  0  0  0  0  0  0  0
    4.1040   -6.0765   10.3758 C   0  0  0  0  0  0  0  0  0  0  0  0
    2.4471   -1.2678    0.7840 C   0  0  0  0  0  0  0  0  0  0  0  0
    1.1118   -0.8791    0.9442 C   0  0  0  0  0  0  0  0  0  0  0  0
    1.9357   -3.0674    9.9511 C   0  0  0  0  0  0  0  0  0  0  0  0
    2.7830   -3.9995   10.5476 C   0  0  0  0  0  0  0  0  0  0  0  0
    2.9418   -2.3510    1.5109 C   0  0  0  0  0  0  0  0  0  0  0  0
    0.2918   -1.5793    1.8293 C   0  0  0  0  0  0  0  0  0  0  0  0
    1.5196   -3.1949    8.6230 C   0  0  0  0  0  0  0  0  0  0  0  0
    2.8202   -5.2355    8.4592 C   0  0  0  0  0  0  0  0  0  0  0  0
    3.2325   -5.0994    9.7935 C   0  0  0  0  0  0  0  0  0  0  0  0
    2.1234   -3.0607    2.4019 C   0  0  0  0  0  0  0  0  0  0  0  0
    0.7841   -2.6667    2.5634 C   0  0  0  0  0  0  0  0  0  0  0  0
    1.9669   -4.2922    7.8662 C   0  0  0  0  0  0  0  0  0  0  0  0
    0.7418   -3.7880    5.7287 C   0  0  0  0  0  0  0  0  0  0  0  0
    2.6873   -4.2304    3.1885 C   0  0  0  0  0  0  0  0  0  0  0  0
   -0.1508   -3.4124    3.5035 C   0  0  0  0  0  0  0  0  0  0  0  0
    1.5591   -5.1049    3.7406 C   0  0  0  0  0  0  0  0  0  0  0  0
    0.5670   -4.2818    4.4366 N   0  0  0  0  0  0  0  0  0  0  0  0
    1.6261   -4.5120    6.5158 N   0  0  0  0  0  0  0  0  0  0  0  0
    0.1267   -2.8070    6.1452 O   0  0  0  0  0  0  0  0  0  0  0  0
    5.4921   -7.6317   11.3063 H   0  0  0  0  0  0  0  0  0  0  0  0
    3.0963   -0.7297    0.0982 H   0  0  0  0  0  0  0  0  0  0  0  0
    0.7162   -0.0334    0.3877 H   0  0  0  0  0  0  0  0  0  0  0  0
    1.5845   -2.2164   10.5286 H   0  0  0  0  0  0  0  0  0  0  0  0
    3.0993   -3.8908   11.5801 H   0  0  0  0  0  0  0  0  0  0  0  0
    3.9791   -2.6562    1.3861 H   0  0  0  0  0  0  0  0  0  0  0  0
   -0.7443   -1.2736    1.9625 H   0  0  0  0  0  0  0  0  0  0  0  0
    0.8587   -2.4689    8.1718 H   0  0  0  0  0  0  0  0  0  0  0  0
    3.1742   -6.0897    7.8862 H   0  0  0  0  0  0  0  0  0  0  0  0
    3.3503   -4.8287    2.5529 H   0  0  0  0  0  0  0  0  0  0  0  0
    3.2961   -3.8577    4.0223 H   0  0  0  0  0  0  0  0  0  0  0  0
   -0.7437   -2.7102    4.0878 H   0  0  0  0  0  0  0  0  0  0  0  0
   -0.8438   -4.0336    2.9207 H   0  0  0  0  0  0  0  0  0  0  0  0
    1.0359   -5.6046    2.9180 H   0  0  0  0  0  0  0  0  0  0  0  0
    1.9414   -5.9082    4.3750 H   0  0  0  0  0  0  0  0  0  0  0  0
    2.0123   -5.3581    6.1255 H   0  0  0  0  0  0  0  0  0  0  0  0
  1  2  3  0  0  0  0
  1 22  1  0  0  0  0
  2 11  1  0  0  0  0
  3  4  1  0  0  0  0
  3  7  2  0  0  0  0
  3 23  1  0  0  0  0
  4  8  2  0  0  0  0
  4 24  1  0  0  0  0
  5  6  2  0  0  0  0
  5  9  1  0  0  0  0
  5 25  1  0  0  0  0
  6 11  1  0  0  0  0
  6 26  1  0  0  0  0
  7 12  1  0  0  0  0
  7 27  1  0  0  0  0
  8 13  1  0  0  0  0
  8 28  1  0  0  0  0
  9 14  2  0  0  0  0
  9 29  1  0  0  0  0
 10 11  2  0  0  0  0
 10 14  1  0  0  0  0
 10 30  1  0  0  0  0
 12 13  2  0  0  0  0
 12 16  1  0  0  0  0
 13 17  1  0  0  0  0
 14 20  1  0  0  0  0
 15 19  1  0  0  0  0
 15 20  1  0  0  0  0
 15 21  2  0  0  0  0
 16 18  1  0  0  0  0
 16 31  1  0  0  0  0
 16 32  1  0  0  0  0
 17 19  1  0  0  0  0
 17 33  1  0  0  0  0
 17 34  1  0  0  0  0
 18 19  1  0  0  0  0
 18 35  1  0  0  0  0
 18 36  1  0  0  0  0
 20 37  1  0  0  0  0
M  END
$$$$
