31
0 1 C16H13NO
C                     1.662702117345    -1.973350582268    -1.485311772001
C                     1.996692620782    -1.622732261934    -0.372912069377
C                     2.068235511669     0.223454533602     2.867699994721
C                     8.304767436180    -5.055654849290     5.118344393771
C                     1.679758488406    -0.173503321769     1.588306733746
C                     7.298367987932    -4.697159345167     4.221121850695
C                     8.860796241542    -4.100213610648     5.973551314091
C                     3.145721758257    -0.391459857613     3.502943903258
C                     3.474130976736    -1.831171752024     1.575213698905
C                     7.404920105346    -2.422162872353     5.048384600011
C                     2.385926393915    -1.203734906003     0.941408035817
C                     6.830964543538    -3.377006320667     4.193075707243
C                     8.426455667560    -2.766183194262     5.942350332527
C                     3.855643847986    -1.422555397729     2.860673812556
C                     5.743615396845    -3.052612583531     3.207857021361
C                     9.072440804535    -1.724100569976     6.826512131156
N                     4.939728389339    -1.987883751721     3.563769103509
O                     5.590458822408    -3.706510062829     2.178374413384
H                     1.373142946506    -2.287491204024    -2.465547984564
H                     1.529519606604     1.017843371104     3.376893367791
H                     8.658855529150    -6.082687700164     5.151987776875
H                     0.841600980467     0.300337827982     1.087434524144
H                     6.863516144096    -5.420730322770     3.539078070575
H                     9.647612537284    -4.389674354526     6.667129453453
H                     3.439889311169    -0.072488567605     4.501227455878
H                     4.009661515456    -2.627440316939     1.078561444721
H                     7.094306915375    -1.380351107422     4.996562947825
H                    10.050876020671    -1.427648828926     6.430656160324
H                     8.458702800718    -0.821764460511     6.899367635530
H                     9.232778694729    -2.106507888298     7.839454834446
H                     5.083503943024    -1.615583331823     4.492836599771
