37
0 1 C18H16N2O
C                     1.871764015086    -6.572698722145   -11.064154047685
C                     2.606802289303    -6.582718507417   -10.098833345693
C                     1.849063307601    -1.314808567510     0.347128057957
C                     0.834682342987    -0.928025853257    -0.537368455841
C                     5.576469562459    -7.227113212869    -7.938186924502
C                     4.738035712890    -7.221948300415    -9.052321021310
C                     2.690552531134    -2.374110586481     0.008074424010
C                     0.679461929802    -1.604516188432    -1.746840658828
C                     5.175126283249    -6.625172389447    -6.746477840492
C                     3.067865550409    -5.986981138475    -7.764339161287
C                     3.479816583690    -6.599400427392    -8.961871999254
C                     2.540424136242    -3.058925397774    -1.207147194119
C                     1.526313025546    -2.666777916710    -2.095131954129
C                     3.917797970966    -6.000301444344    -6.649603056610
C                     2.480726236911    -4.643987687832    -5.093634590921
C                     3.463195794266    -4.206240016962    -1.562210581856
C                     1.296968162202    -3.370444036411    -3.418572365048
C                     2.838767537651    -5.097003465339    -2.634018365383
N                     2.399333617141    -4.268700988640    -3.758832311364
N                     3.580153244884    -5.437934233729    -5.401935826826
O                     1.666775596510    -4.260880421521    -5.932162120733
H                     1.220496329563    -6.558784674153   -11.912026788827
H                     1.979018228948    -0.795993503892     1.293309356883
H                     0.172046486324    -0.104192082306    -0.285511187432
H                     6.551680650020    -7.703169789471    -7.993982919795
H                     5.042848882502    -7.687765700165    -9.983921546001
H                     3.475892231954    -2.681582866286     0.696140436584
H                    -0.106684311173    -1.303179533174    -2.436680997298
H                     5.839253377167    -6.639626690328    -5.883925787027
H                     2.106841312275    -5.496674142388    -7.706998137876
H                     4.417715650715    -3.812810164888    -1.934979514089
H                     3.686277384937    -4.801366043348    -0.669491606723
H                     0.348048884513    -3.928353193615    -3.382722201849
H                     1.194966434331    -2.641227023726    -4.223011828270
H                     3.542294113322    -5.861187206329    -2.964356069662
H                     1.970673189004    -5.630858110416    -2.217605680286
H                     4.321877768410    -5.469016319757    -4.717184590884
