18
0 1 C4Cl2H6N3O2P
C                     0.067190445372    -0.414800689603    -1.003053365493
C                     0.139647156508     0.040758488208     1.113459972667
C                     0.601549703254     1.027793379069    -0.852113667852
C                     0.626273111250     2.520590283339     1.228073570416
N                    -0.171939867700    -0.926769914649     0.283130673166
N                     0.608807077651     1.203095935105     0.599507259141
N                    -0.028833342179    -0.142535141136     2.499945402859
O                    -0.085523938005    -0.993620395413    -2.060255207117
O                     1.981048322065     1.286082198504     3.572911412422
P                     1.275171633358    -0.004950934357     3.571495339498
Cl                    2.514738779329    -1.593857580431     3.182485164903
Cl                    0.353818418972    -0.524733630255     5.319108216046
H                     1.600850170427     1.127662072981    -1.286397291783
H                    -0.069315631633     1.746061027336    -1.334796596194
H                     1.647954334783     2.894792052830     1.325325514772
H                     0.190135170996     2.465604574775     2.223597892516
H                     0.037816876762     3.214383744908     0.618307941166
H                    -0.583369444465    -0.987362012338     2.647312805070
