
  -OEChem-05262117483D

 31 32  0     0  0  0  0  0  0999 V2000
    0.9048    2.7395    2.0531 C   0  0  0  0  0  0  0  0  0  0  0  0
    1.1271    1.5628    1.8570 C   0  0  0  0  0  0  0  0  0  0  0  0
    0.8473   -1.9266    0.5568 C   0  0  0  0  0  0  0  0  0  0  0  0
    6.8555   -3.5046    5.5650 C   0  0  0  0  0  0  0  0  0  0  0  0
    0.5675   -0.5772    0.7643 C   0  0  0  0  0  0  0  0  0  0  0  0
    5.7475   -3.1997    4.7709 C   0  0  0  0  0  0  0  0  0  0  0  0
    7.7710   -4.4757    5.1523 C   0  0  0  0  0  0  0  0  0  0  0  0
    1.9264   -2.5565    1.1827 C   0  0  0  0  0  0  0  0  0  0  0  0
    2.4748   -0.4506    2.2592 C   0  0  0  0  0  0  0  0  0  0  0  0
    6.4690   -4.8650    3.1659 C   0  0  0  0  0  0  0  0  0  0  0  0
    1.3900    0.1736    1.6253 C   0  0  0  0  0  0  0  0  0  0  0  0
    5.5551   -3.8767    3.5567 C   0  0  0  0  0  0  0  0  0  0  0  0
    7.5869   -5.1736    3.9480 C   0  0  0  0  0  0  0  0  0  0  0  0
    2.7484   -1.8096    2.0447 C   0  0  0  0  0  0  0  0  0  0  0  0
    4.3873   -3.6237    2.6456 C   0  0  0  0  0  0  0  0  0  0  0  0
    8.5537   -6.2551    3.5239 C   0  0  0  0  0  0  0  0  0  0  0  0
    3.8515   -2.3548    2.7342 N   0  0  0  0  0  0  0  0  0  0  0  0
    3.9669   -4.4886    1.8789 O   0  0  0  0  0  0  0  0  0  0  0  0
    0.7058    3.7764    2.2228 H   0  0  0  0  0  0  0  0  0  0  0  0
    0.2152   -2.5089   -0.1084 H   0  0  0  0  0  0  0  0  0  0  0  0
    7.0014   -2.9890    6.5105 H   0  0  0  0  0  0  0  0  0  0  0  0
   -0.2725   -0.0973    0.2723 H   0  0  0  0  0  0  0  0  0  0  0  0
    5.0248   -2.4706    5.1288 H   0  0  0  0  0  0  0  0  0  0  0  0
    8.6340   -4.7002    5.7757 H   0  0  0  0  0  0  0  0  0  0  0  0
    2.1407   -3.6017    1.0103 H   0  0  0  0  0  0  0  0  0  0  0  0
    3.1046    0.1366    2.9237 H   0  0  0  0  0  0  0  0  0  0  0  0
    6.2853   -5.3904    2.2329 H   0  0  0  0  0  0  0  0  0  0  0  0
    8.2600   -7.2240    3.9453 H   0  0  0  0  0  0  0  0  0  0  0  0
    8.5783   -6.3644    2.4362 H   0  0  0  0  0  0  0  0  0  0  0  0
    9.5696   -6.0412    3.8690 H   0  0  0  0  0  0  0  0  0  0  0  0
    4.3644   -1.6963    3.3051 H   0  0  0  0  0  0  0  0  0  0  0  0
  1  2  3  0  0  0  0
  1 19  1  0  0  0  0
  2 11  1  0  0  0  0
  3  5  2  0  0  0  0
  3  8  1  0  0  0  0
  3 20  1  0  0  0  0
  4  6  2  0  0  0  0
  4  7  1  0  0  0  0
  4 21  1  0  0  0  0
  5 11  1  0  0  0  0
  5 22  1  0  0  0  0
  6 12  1  0  0  0  0
  6 23  1  0  0  0  0
  7 13  2  0  0  0  0
  7 24  1  0  0  0  0
  8 14  2  0  0  0  0
  8 25  1  0  0  0  0
  9 11  2  0  0  0  0
  9 14  1  0  0  0  0
  9 26  1  0  0  0  0
 10 12  2  0  0  0  0
 10 13  1  0  0  0  0
 10 27  1  0  0  0  0
 12 15  1  0  0  0  0
 13 16  1  0  0  0  0
 14 17  1  0  0  0  0
 15 17  1  0  0  0  0
 15 18  2  0  0  0  0
 16 28  1  0  0  0  0
 16 29  1  0  0  0  0
 16 30  1  0  0  0  0
 17 31  1  0  0  0  0
M  END
$$$$
