
  -OEChem-05262117483D

 64 65  0     0  0  0  0  0  0999 V2000
    4.0741   -0.2575   -6.3789 C   0  0  0  0  0  0  0  0  0  0  0  0
    5.1985    0.3187   -5.7828 C   0  0  0  0  0  0  0  0  0  0  0  0
    3.6269   -1.4769   -4.3445 C   0  0  0  0  0  0  0  0  0  0  0  0
    3.2753   -1.1600   -5.6639 C   0  0  0  0  0  0  0  0  0  0  0  0
    2.0743   -1.8004   -6.2814 C   0  0  0  0  0  0  0  0  0  0  0  0
    4.7462   -0.9168   -3.7155 C   0  0  0  0  0  0  0  0  0  0  0  0
    0.8813   -1.0713   -6.4511 C   0  0  0  0  0  0  0  0  0  0  0  0
    2.1286   -3.1583   -6.6500 C   0  0  0  0  0  0  0  0  0  0  0  0
    5.5078   -0.0233   -4.4718 C   0  0  0  0  0  0  0  0  0  0  0  0
   -0.2178   -1.7553   -7.0104 C   0  0  0  0  0  0  0  0  0  0  0  0
    0.9591   -3.7565   -7.1527 C   0  0  0  0  0  0  0  0  0  0  0  0
    6.1690   -2.4618   -2.3092 C   0  0  0  0  0  0  0  0  0  0  0  0
    0.9098    5.2916   -7.4643 C   0  0  0  0  0  0  0  0  0  0  0  0
   -2.6611   -1.7564   -6.4205 C   0  0  0  0  0  0  0  0  0  0  0  0
   -1.9100   -1.1718   -8.7737 C   0  0  0  0  0  0  0  0  0  0  0  0
    0.5259   -5.4160   -8.9940 C   0  0  0  0  0  0  0  0  0  0  0  0
   -0.1985   -5.9106   -6.6095 C   0  0  0  0  0  0  0  0  0  0  0  0
    5.1489   -1.3087   -2.3135 C   0  0  0  0  0  0  0  0  0  0  0  0
    0.7874    0.3833   -6.0377 C   0  0  0  0  0  0  0  0  0  0  0  0
    3.4045   -3.9454   -6.4897 C   0  0  0  0  0  0  0  0  0  0  0  0
    1.0058    3.8304   -7.9171 C   0  0  0  0  0  0  0  0  0  0  0  0
    0.9380    1.3711   -7.2087 C   0  0  0  0  0  0  0  0  0  0  0  0
    0.8438    2.8333   -6.7639 C   0  0  0  0  0  0  0  0  0  0  0  0
   -1.5652   -1.0970   -7.2762 C   0  0  0  0  0  0  0  0  0  0  0  0
    0.8558   -5.2334   -7.5030 C   0  0  0  0  0  0  0  0  0  0  0  0
   -0.1646   -3.0534   -7.3328 N   0  0  0  0  0  0  0  0  0  0  0  0
    3.3317   -4.6942   -5.2590 O   0  0  0  0  0  0  0  0  0  0  0  0
    6.6129    0.5378   -3.9019 F   0  0  0  0  0  0  0  0  0  0  0  0
    3.8267   -0.0140   -7.4077 H   0  0  0  0  0  0  0  0  0  0  0  0
    5.8333    1.0177   -6.3192 H   0  0  0  0  0  0  0  0  0  0  0  0
    3.0182   -2.1915   -3.7972 H   0  0  0  0  0  0  0  0  0  0  0  0
    5.7530   -3.3464   -2.8030 H   0  0  0  0  0  0  0  0  0  0  0  0
    6.4406   -2.7375   -1.2847 H   0  0  0  0  0  0  0  0  0  0  0  0
    7.0832   -2.1754   -2.8385 H   0  0  0  0  0  0  0  0  0  0  0  0
    1.6850    5.5277   -6.7261 H   0  0  0  0  0  0  0  0  0  0  0  0
    1.0302    5.9813   -8.3068 H   0  0  0  0  0  0  0  0  0  0  0  0
   -0.0617    5.4981   -7.0004 H   0  0  0  0  0  0  0  0  0  0  0  0
   -2.7455   -2.8184   -6.6669 H   0  0  0  0  0  0  0  0  0  0  0  0
   -3.6301   -1.2774   -6.6006 H   0  0  0  0  0  0  0  0  0  0  0  0
   -2.4326   -1.6734   -5.3522 H   0  0  0  0  0  0  0  0  0  0  0  0
   -1.9708   -2.2148   -9.0966 H   0  0  0  0  0  0  0  0  0  0  0  0
   -1.1469   -0.6730   -9.3814 H   0  0  0  0  0  0  0  0  0  0  0  0
   -2.8732   -0.6879   -8.9706 H   0  0  0  0  0  0  0  0  0  0  0  0
   -0.4289   -4.9385   -9.2320 H   0  0  0  0  0  0  0  0  0  0  0  0
    0.4548   -6.4802   -9.2452 H   0  0  0  0  0  0  0  0  0  0  0  0
    1.2967   -4.9665   -9.6303 H   0  0  0  0  0  0  0  0  0  0  0  0
   -1.1804   -5.4549   -6.7661 H   0  0  0  0  0  0  0  0  0  0  0  0
    0.0653   -5.8084   -5.5520 H   0  0  0  0  0  0  0  0  0  0  0  0
   -0.2682   -6.9788   -6.8442 H   0  0  0  0  0  0  0  0  0  0  0  0
    5.5747   -0.4450   -1.7939 H   0  0  0  0  0  0  0  0  0  0  0  0
    4.2545   -1.6102   -1.7587 H   0  0  0  0  0  0  0  0  0  0  0  0
   -0.1694    0.5666   -5.5370 H   0  0  0  0  0  0  0  0  0  0  0  0
    1.5607    0.6003   -5.2962 H   0  0  0  0  0  0  0  0  0  0  0  0
    3.5411   -4.6265   -7.3390 H   0  0  0  0  0  0  0  0  0  0  0  0
    4.2625   -3.2657   -6.4672 H   0  0  0  0  0  0  0  0  0  0  0  0
    0.2399    3.6308   -8.6782 H   0  0  0  0  0  0  0  0  0  0  0  0
    1.9739    3.6612   -8.4071 H   0  0  0  0  0  0  0  0  0  0  0  0
    0.1726    1.1657   -7.9672 H   0  0  0  0  0  0  0  0  0  0  0  0
    1.9028    1.1998   -7.7004 H   0  0  0  0  0  0  0  0  0  0  0  0
   -0.1241    3.0023   -6.2714 H   0  0  0  0  0  0  0  0  0  0  0  0
    1.6113    3.0300   -6.0027 H   0  0  0  0  0  0  0  0  0  0  0  0
   -1.5112   -0.0423   -6.9984 H   0  0  0  0  0  0  0  0  0  0  0  0
    1.8128   -5.7167   -7.2957 H   0  0  0  0  0  0  0  0  0  0  0  0
    4.1619   -5.1887   -5.1653 H   0  0  0  0  0  0  0  0  0  0  0  0
  1  2  1  0  0  0  0
  1  4  2  0  0  0  0
  1 29  1  0  0  0  0
  2  9  2  0  0  0  0
  2 30  1  0  0  0  0
  3  4  1  0  0  0  0
  3  6  2  0  0  0  0
  3 31  1  0  0  0  0
  4  5  1  0  0  0  0
  5  7  1  0  0  0  0
  5  8  2  0  0  0  0
  6  9  1  0  0  0  0
  6 18  1  0  0  0  0
  7 10  2  0  0  0  0
  7 19  1  0  0  0  0
  8 11  1  0  0  0  0
  8 20  1  0  0  0  0
  9 28  1  0  0  0  0
 10 24  1  0  0  0  0
 10 26  1  0  0  0  0
 11 25  1  0  0  0  0
 11 26  2  0  0  0  0
 12 18  1  0  0  0  0
 12 32  1  0  0  0  0
 12 33  1  0  0  0  0
 12 34  1  0  0  0  0
 13 21  1  0  0  0  0
 13 35  1  0  0  0  0
 13 36  1  0  0  0  0
 13 37  1  0  0  0  0
 14 24  1  0  0  0  0
 14 38  1  0  0  0  0
 14 39  1  0  0  0  0
 14 40  1  0  0  0  0
 15 24  1  0  0  0  0
 15 41  1  0  0  0  0
 15 42  1  0  0  0  0
 15 43  1  0  0  0  0
 16 25  1  0  0  0  0
 16 44  1  0  0  0  0
 16 45  1  0  0  0  0
 16 46  1  0  0  0  0
 17 25  1  0  0  0  0
 17 47  1  0  0  0  0
 17 48  1  0  0  0  0
 17 49  1  0  0  0  0
 18 50  1  0  0  0  0
 18 51  1  0  0  0  0
 19 22  1  0  0  0  0
 19 52  1  0  0  0  0
 19 53  1  0  0  0  0
 20 27  1  0  0  0  0
 20 54  1  0  0  0  0
 20 55  1  0  0  0  0
 21 23  1  0  0  0  0
 21 56  1  0  0  0  0
 21 57  1  0  0  0  0
 22 23  1  0  0  0  0
 22 58  1  0  0  0  0
 22 59  1  0  0  0  0
 23 60  1  0  0  0  0
 23 61  1  0  0  0  0
 24 62  1  0  0  0  0
 25 63  1  0  0  0  0
 27 64  1  0  0  0  0
M  END
$$$$
