
  -OEChem-05262117483D

 38 38  0     1  0  0  0  0  0999 V2000
    0.0318   -1.4074   -2.3936 C   0  0  0  0  0  0  0  0  0  0  0  0
    1.2446   -2.3253   -2.0768 C   0  0  0  0  0  0  0  0  0  0  0  0
   -0.7896   -1.3935   -1.0892 C   0  0  0  0  0  0  0  0  0  0  0  0
    1.0243   -2.7912   -0.6203 C   0  0  2  0  0  0  0  0  0  0  0  0
    1.5048   -4.2112   -0.3224 C   0  0  0  0  0  0  0  0  0  0  0  0
    3.0262   -4.3592   -0.4499 C   0  0  0  0  0  0  0  0  0  0  0  0
    7.1020   -7.9461    0.0907 C   0  0  0  0  0  0  0  0  0  0  0  0
    7.3880   -9.4146    0.4270 C   0  0  0  0  0  0  0  0  0  0  0  0
    3.4702   -5.7875   -0.1329 C   0  0  0  0  0  0  0  0  0  0  0  0
    5.5976   -7.6751    0.1325 C   0  0  0  0  0  0  0  0  0  0  0  0
    8.8667   -9.7397    0.4244 C   0  0  0  0  0  0  0  0  0  0  0  0
   -0.4341   -2.6750   -0.4631 N   0  0  0  0  0  0  0  0  0  0  0  0
    5.8879   -5.1027    0.7879 O   0  0  0  0  0  0  0  0  0  0  0  0
    5.6529   -5.7153   -1.6823 O   0  0  0  0  0  0  0  0  0  0  0  0
    9.0798  -11.0475    0.7192 F   0  0  0  0  0  0  0  0  0  0  0  0
    9.4386   -9.5041   -0.7831 F   0  0  0  0  0  0  0  0  0  0  0  0
    9.5503   -9.0078    1.3398 F   0  0  0  0  0  0  0  0  0  0  0  0
    5.2775   -5.9270   -0.2720 S   0  0  0  0  0  0  0  0  0  0  0  0
    0.3337   -0.3992   -2.6895 H   0  0  0  0  0  0  0  0  0  0  0  0
   -0.5606   -1.8271   -3.2108 H   0  0  0  0  0  0  0  0  0  0  0  0
    1.2565   -3.1908   -2.7471 H   0  0  0  0  0  0  0  0  0  0  0  0
    2.2020   -1.8107   -2.1911 H   0  0  0  0  0  0  0  0  0  0  0  0
   -0.4957   -0.5269   -0.4710 H   0  0  0  0  0  0  0  0  0  0  0  0
   -1.8683   -1.3333   -1.2641 H   0  0  0  0  0  0  0  0  0  0  0  0
    1.5559   -2.0925    0.0539 H   0  0  0  0  0  0  0  0  0  0  0  0
    1.1954   -4.4901    0.6943 H   0  0  0  0  0  0  0  0  0  0  0  0
    0.9930   -4.8979   -1.0076 H   0  0  0  0  0  0  0  0  0  0  0  0
    3.5285   -3.6673    0.2341 H   0  0  0  0  0  0  0  0  0  0  0  0
    3.3469   -4.1034   -1.4640 H   0  0  0  0  0  0  0  0  0  0  0  0
    7.6073   -7.2928    0.8065 H   0  0  0  0  0  0  0  0  0  0  0  0
    7.4866   -7.7092   -0.9047 H   0  0  0  0  0  0  0  0  0  0  0  0
    7.0086   -9.6734    1.4203 H   0  0  0  0  0  0  0  0  0  0  0  0
    6.9132  -10.0851   -0.2957 H   0  0  0  0  0  0  0  0  0  0  0  0
    3.2120   -6.0743    0.8910 H   0  0  0  0  0  0  0  0  0  0  0  0
    3.0432   -6.5091   -0.8359 H   0  0  0  0  0  0  0  0  0  0  0  0
    5.0540   -8.2740   -0.6043 H   0  0  0  0  0  0  0  0  0  0  0  0
    5.1809   -7.8506    1.1289 H   0  0  0  0  0  0  0  0  0  0  0  0
   -0.7022   -2.6977    0.5190 H   0  0  0  0  0  0  0  0  0  0  0  0
  1  2  1  0  0  0  0
  1  3  1  0  0  0  0
  1 19  1  0  0  0  0
  1 20  1  0  0  0  0
  2  4  1  0  0  0  0
  2 21  1  0  0  0  0
  2 22  1  0  0  0  0
  3 12  1  0  0  0  0
  3 23  1  0  0  0  0
  3 24  1  0  0  0  0
  4  5  1  0  0  0  0
  4 12  1  0  0  0  0
  4 25  1  0  0  0  0
  5  6  1  0  0  0  0
  5 26  1  0  0  0  0
  5 27  1  0  0  0  0
  6  9  1  0  0  0  0
  6 28  1  0  0  0  0
  6 29  1  0  0  0  0
  7  8  1  0  0  0  0
  7 10  1  0  0  0  0
  7 30  1  0  0  0  0
  7 31  1  0  0  0  0
  8 11  1  0  0  0  0
  8 32  1  0  0  0  0
  8 33  1  0  0  0  0
  9 18  1  0  0  0  0
  9 34  1  0  0  0  0
  9 35  1  0  0  0  0
 10 18  1  0  0  0  0
 10 36  1  0  0  0  0
 10 37  1  0  0  0  0
 11 15  1  0  0  0  0
 11 16  1  0  0  0  0
 11 17  1  0  0  0  0
 12 38  1  0  0  0  0
 13 18  2  0  0  0  0
 14 18  2  0  0  0  0
M  END
$$$$
