38
0 1 C11F3H20NO2S
C                    -1.125452631124    -0.938459740863     0.261032497437
C                    -0.959715688727    -1.770663539506    -1.021328706842
C                     0.193870135500    -0.165868019591     0.313259726912
C                     0.546403564035    -2.130014463882    -1.046226309392
C                     0.810854022367    -3.580580555482    -0.616831489123
C                     2.306252732228    -3.901997612598    -0.532244644581
C                     6.499519922245    -5.136767788321     1.454005156083
C                     7.112991347751    -4.303800175292     2.586011742213
C                     2.548330631156    -5.337220491438    -0.073884383625
C                     5.014454312899    -4.806550842281     1.299389528948
C                     8.589732158181    -4.574239480288     2.780827644390
N                     1.184925476679    -1.178340120297    -0.096943952635
O                     4.927654475721    -5.369445838371    -1.309927981972
O                     4.383907825793    -7.223264210677     0.365080759961
F                     9.095192429451    -3.822184216377     3.792138804380
F                     8.834850058474    -5.872580010668     3.088470165795
F                     9.311675339058    -4.283925342906     1.669146903092
S                     4.303524384005    -5.810114308146    -0.048020926830
H                    -2.000867770764    -0.283736882703     0.239899239309
H                    -1.209257981469    -1.591268104669     1.136705531591
H                    -1.597948818784    -2.658734973452    -1.042810507540
H                    -1.215886497544    -1.160162041719    -1.893793503613
H                     0.148410892045     0.693873393787    -0.375768218703
H                     0.425675699332     0.216025652871     1.313332597018
H                     0.947830209823    -1.997174224961    -2.060989673335
H                     0.341544979087    -3.744678741892     0.361951332939
H                     0.323742161236    -4.258824991399    -1.329941252408
H                     2.765098005265    -3.194797202974     0.165783176609
H                     2.780695731095    -3.756933470071    -1.508713200072
H                     7.016355868387    -4.927985248521     0.513654966677
H                     6.615646347680    -6.202342298231     1.667410021776
H                     7.010061585930    -3.232436752453     2.388350004372
H                     6.622113761045    -4.514117969308     3.541088885766
H                     2.161698388443    -5.538093832229     0.929989354714
H                     2.106550042555    -6.068594800859    -0.758901298278
H                     4.445955277231    -5.046316400843     2.202955816675
H                     4.858783718077    -3.757359584728     1.035443508792
H                     2.008496341807    -0.746801603147    -0.504440134027
