
  -OEChem-05262117483D

 39 39  0     1  0  0  0  0  0999 V2000
    9.7609   -1.6216   -1.0874 C   0  0  0  0  0  0  0  0  0  0  0  0
    8.0293   -1.9994    0.4919 C   0  0  0  0  0  0  0  0  0  0  0  0
   11.5494   -2.0422   -2.6965 C   0  0  0  0  0  0  0  0  0  0  0  0
   11.0737   -1.7657    6.6756 C   0  0  0  0  0  0  0  0  0  0  0  0
   10.4582    0.1639   -2.5969 C   0  0  0  0  0  0  0  0  0  0  0  0
   13.0093   -3.9738   -2.6375 C   0  0  0  0  0  0  0  0  0  0  0  0
   12.5402   -2.7877   -0.5216 C   0  0  0  0  0  0  0  0  0  0  0  0
   10.4839   -1.3108    5.3363 C   0  0  0  0  0  0  0  0  0  0  0  0
    9.2973   -2.1707    4.8842 C   0  0  0  0  0  0  0  0  0  0  0  0
    8.7049   -1.7041    3.5479 C   0  0  0  0  0  0  0  0  0  0  0  0
    7.5451   -2.5848    3.1004 C   0  0  0  0  0  0  0  0  0  0  0  0
    9.5986   -2.8973   -0.8037 N   0  0  0  0  0  0  0  0  0  0  0  0
    8.5969   -3.0978    0.1135 N   0  0  0  0  0  0  0  0  0  0  0  0
   10.7207   -1.1278   -1.9441 N   0  0  0  0  0  0  0  0  0  0  0  0
   12.3380   -2.8688   -1.9611 N   0  0  0  0  0  0  0  0  0  0  0  0
   11.5483   -1.9872   -3.9227 O   0  0  0  0  0  0  0  0  0  0  0  0
    6.4445   -0.4002    1.8802 O   0  0  0  0  0  0  0  0  0  0  0  0
    8.6550   -0.5355   -0.2395 S   0  0  0  0  0  0  0  0  0  0  0  0
    6.6284   -1.8896    1.6474 S   0  0  1  0  0  0  0  0  0  0  0  0
   10.3241   -1.7182    7.4739 H   0  0  0  0  0  0  0  0  0  0  0  0
   11.4321   -2.8001    6.6193 H   0  0  0  0  0  0  0  0  0  0  0  0
   11.9183   -1.1358    6.9740 H   0  0  0  0  0  0  0  0  0  0  0  0
   10.3852    0.9468   -1.8362 H   0  0  0  0  0  0  0  0  0  0  0  0
    9.5384    0.1388   -3.1899 H   0  0  0  0  0  0  0  0  0  0  0  0
   11.2916    0.3896   -3.2589 H   0  0  0  0  0  0  0  0  0  0  0  0
   14.0977   -3.8565   -2.5745 H   0  0  0  0  0  0  0  0  0  0  0  0
   12.7136   -3.9871   -3.6846 H   0  0  0  0  0  0  0  0  0  0  0  0
   12.7274   -4.9208   -2.1630 H   0  0  0  0  0  0  0  0  0  0  0  0
   11.9559   -3.5507    0.0031 H   0  0  0  0  0  0  0  0  0  0  0  0
   12.2535   -1.8043   -0.1506 H   0  0  0  0  0  0  0  0  0  0  0  0
   13.6046   -2.9378   -0.3108 H   0  0  0  0  0  0  0  0  0  0  0  0
   11.2635   -1.3367    4.5637 H   0  0  0  0  0  0  0  0  0  0  0  0
   10.1620   -0.2643    5.4117 H   0  0  0  0  0  0  0  0  0  0  0  0
    8.5176   -2.1465    5.6573 H   0  0  0  0  0  0  0  0  0  0  0  0
    9.6181   -3.2181    4.8024 H   0  0  0  0  0  0  0  0  0  0  0  0
    9.4855   -1.7125    2.7788 H   0  0  0  0  0  0  0  0  0  0  0  0
    8.3524   -0.6706    3.6346 H   0  0  0  0  0  0  0  0  0  0  0  0
    6.7769   -2.6703    3.8768 H   0  0  0  0  0  0  0  0  0  0  0  0
    7.8553   -3.5891    2.7948 H   0  0  0  0  0  0  0  0  0  0  0  0
  1 12  2  0  0  0  0
  1 14  1  0  0  0  0
  1 18  1  0  0  0  0
  2 13  2  0  0  0  0
  2 18  1  0  0  0  0
  2 19  1  0  0  0  0
  3 14  1  0  0  0  0
  3 15  1  0  0  0  0
  3 16  2  0  0  0  0
  4  8  1  0  0  0  0
  4 20  1  0  0  0  0
  4 21  1  0  0  0  0
  4 22  1  0  0  0  0
  5 14  1  0  0  0  0
  5 23  1  0  0  0  0
  5 24  1  0  0  0  0
  5 25  1  0  0  0  0
  6 15  1  0  0  0  0
  6 26  1  0  0  0  0
  6 27  1  0  0  0  0
  6 28  1  0  0  0  0
  7 15  1  0  0  0  0
  7 29  1  0  0  0  0
  7 30  1  0  0  0  0
  7 31  1  0  0  0  0
  8  9  1  0  0  0  0
  8 32  1  0  0  0  0
  8 33  1  0  0  0  0
  9 10  1  0  0  0  0
  9 34  1  0  0  0  0
  9 35  1  0  0  0  0
 10 11  1  0  0  0  0
 10 36  1  0  0  0  0
 10 37  1  0  0  0  0
 11 19  1  0  0  0  0
 11 38  1  0  0  0  0
 11 39  1  0  0  0  0
 12 13  1  0  0  0  0
 17 19  2  0  0  0  0
M  END
$$$$
