52
0 1 C19H24N4O4S
C                    -3.620601063735    -0.325572680460    -0.838880316382
C                    -2.728808603813     0.785626059776    -0.575809184908
C                    -1.721494594468     0.433688632950     0.280681471698
C                    -4.808407952660    -0.335267841972    -1.672593751771
C                    -3.264997052684    -1.474611189664    -0.163758486392
C                    -5.140078643749    -2.732687382807    -1.011775153152
C                     0.721617837436     1.126442711101     2.925019253073
C                    -6.762234255985    -2.843699908471    -3.611159923159
C                    -0.944868246221     1.578433705190     4.508625697248
C                    -1.514927878402     1.808908515339     3.097234017751
C                    -2.117366107235    -5.975463585902     0.523459567328
C                    -2.945907973120    -5.537848616801    -1.338171106349
C                    -6.377916586765    -1.496781788586    -4.175364135419
C                    -2.498562202423    -4.642451332928    -0.158159511039
C                    -6.578856275794    -1.671916600737    -2.682692270432
C                    -2.915154241552     2.143623700508    -1.197412561279
C                    -5.001776676877    -1.294954251324    -4.773980455932
C                    -0.565027950673     1.228413021722     0.815320330943
C                    -3.574966281616    -3.829025953825     0.550887806426
N                    -5.430691681586    -1.610761130406    -1.795285943448
N                    -3.985669139318    -2.643953355299    -0.218490226937
N                     0.492767077438     1.549981174807     4.232379566675
N                    -0.502873827693     1.168435473402     2.265348016482
O                    -5.275559820916     0.638785273558    -2.254544466843
O                    -5.824668512393    -3.748249709086    -1.012867565418
O                     1.794270140166     0.785336155333     2.443070192979
O                    -2.514765973746    -6.740591876463    -0.641065191236
S                    -1.843518091362    -1.250430360340     0.811075091439
H                    -7.772905709520    -3.221499680820    -3.730928569499
H                    -5.998489446323    -3.613543744782    -3.595645156440
H                    -1.208869512478     2.382713176974     5.199413591014
H                    -1.302162629203     0.623605423095     4.918106615978
H                    -2.497607090475     1.351442786124     2.956870286506
H                    -1.590631557402     2.882764299340     2.867739603635
H                    -1.055178400265    -6.108893635157     0.757773256510
H                    -2.719704252782    -6.237331765281     1.404025633269
H                    -4.022653937834    -5.545545975590    -1.533815102068
H                    -2.394568328733    -5.399960514134    -2.274916011419
H                    -7.166780618392    -0.922292816150    -4.655091550829
H                    -1.635060884419    -4.014828475826    -0.390876286277
H                    -7.469460346578    -1.222996554297    -2.253262921350
H                    -3.916757613862     2.527106936643    -0.988494874911
H                    -2.175717822075     2.859561884234    -0.833532843082
H                    -2.831555212110     2.083182799331    -2.286553888307
H                    -4.239820126347    -1.857887708013    -4.224816036803
H                    -4.719679174589    -0.238791877786    -4.757505814670
H                    -4.983464652963    -1.645150748629    -5.811929587066
H                     0.391659251586     0.840831990728     0.451723410340
H                    -0.650047979679     2.267382274223     0.470500088887
H                    -3.217081876628    -3.488055761733     1.528533379037
H                    -4.468935289739    -4.432235299690     0.709356214079
H                     1.140733395681     1.196379840202     4.925576878366
