
  -OEChem-05262117483D

 66 70  0     1  0  0  0  0  0999 V2000
    3.7575   -4.8643    2.1189 C   0  0  0  0  0  0  0  0  0  0  0  0
    5.4932   -3.1875    2.1507 C   0  0  0  0  0  0  0  0  0  0  0  0
    1.8515   -2.6191    2.7559 C   0  0  0  0  0  0  0  0  0  0  0  0
   -0.9845   -0.2200   -2.8630 C   0  0  0  0  0  0  0  0  0  0  0  0
    4.7230   -5.8696    2.0949 C   0  0  0  0  0  0  0  0  0  0  0  0
    6.4622   -4.1861    2.1303 C   0  0  0  0  0  0  0  0  0  0  0  0
    0.8458   -1.6521    2.6982 C   0  0  0  0  0  0  0  0  0  0  0  0
   -1.3182    0.3227   -1.6246 C   0  0  0  0  0  0  0  0  0  0  0  0
    3.3119   -1.2515    1.3940 C   0  0  0  0  0  0  0  0  0  0  0  0
   -0.5634   -1.7359   -0.5740 C   0  0  0  0  0  0  0  0  0  0  0  0
    4.1214   -3.5081    2.1402 C   0  0  0  0  0  0  0  0  0  0  0  0
    3.0895   -2.4466    2.1068 C   0  0  0  0  0  0  0  0  0  0  0  0
   -0.4119   -1.4975   -2.9797 C   0  0  0  0  0  0  0  0  0  0  0  0
    2.3133   -0.2892    1.3126 C   0  0  0  0  0  0  0  0  0  0  0  0
   -0.1876   -2.2598   -1.8165 C   0  0  0  0  0  0  0  0  0  0  0  0
    6.0767   -5.5326    2.0990 C   0  0  0  0  0  0  0  0  0  0  0  0
    1.0832   -0.4996    1.9452 C   0  0  0  0  0  0  0  0  0  0  0  0
   -1.1018   -0.4533   -0.4826 C   0  0  0  0  0  0  0  0  0  0  0  0
    2.5915   -4.8230   -1.0347 C   0  0  0  0  0  0  0  0  0  0  0  0
   -0.0981   -2.0465   -4.3576 C   0  0  0  0  0  0  0  0  0  0  0  0
    0.8704   -3.2327   -4.3352 C   0  0  0  0  0  0  0  0  0  0  0  0
    0.4564   -4.2410   -3.2590 C   0  0  0  0  0  0  0  0  0  0  0  0
    0.9663    1.6608    1.0130 C   0  0  0  0  0  0  0  0  0  0  0  0
    0.4966   -3.6181   -1.8541 C   0  0  1  0  0  0  0  0  0  0  0  0
    2.3151    1.0257    0.5508 C   0  0  0  0  0  0  0  0  0  0  0  0
    3.4976    1.9244    0.9467 C   0  0  0  0  0  0  0  0  0  0  0  0
    2.3355    0.7649   -0.9684 C   0  0  0  0  0  0  0  0  0  0  0  0
    1.9400   -3.4771   -1.3238 C   0  0  0  0  0  0  0  0  0  0  0  0
    7.1444   -6.5905    2.0557 C   0  0  0  0  0  0  0  0  0  0  0  0
    0.1977    0.5914    1.7164 N   0  0  1  0  0  0  0  0  0  0  0  0
    1.9816   -5.8278   -0.7453 O   0  0  0  0  0  0  0  0  0  0  0  0
   -2.0186    1.5590    0.9617 O   0  0  0  0  0  0  0  0  0  0  0  0
   -1.9215   -0.7719    2.0196 O   0  0  0  0  0  0  0  0  0  0  0  0
    3.9529   -4.8513   -1.0860 O   0  0  0  0  0  0  0  0  0  0  0  0
    6.6384   -7.8440    2.0925 F   0  0  0  0  0  0  0  0  0  0  0  0
    7.9013   -6.4983    0.9277 F   0  0  0  0  0  0  0  0  0  0  0  0
    8.0088   -6.4769    3.1011 F   0  0  0  0  0  0  0  0  0  0  0  0
   -1.3782    0.2569    1.1357 S   0  0  0  0  0  0  0  0  0  0  0  0
    2.7103   -5.1444    2.0667 H   0  0  0  0  0  0  0  0  0  0  0  0
    5.8036   -2.1481    2.2069 H   0  0  0  0  0  0  0  0  0  0  0  0
    1.6797   -3.5161    3.3434 H   0  0  0  0  0  0  0  0  0  0  0  0
   -1.1628    0.3632   -3.7639 H   0  0  0  0  0  0  0  0  0  0  0  0
    4.4191   -6.9095    2.0466 H   0  0  0  0  0  0  0  0  0  0  0  0
    7.5158   -3.9221    2.1505 H   0  0  0  0  0  0  0  0  0  0  0  0
   -0.1021   -1.7957    3.2031 H   0  0  0  0  0  0  0  0  0  0  0  0
   -1.7439    1.3167   -1.5331 H   0  0  0  0  0  0  0  0  0  0  0  0
    4.2526   -1.1011    0.8698 H   0  0  0  0  0  0  0  0  0  0  0  0
   -0.4293   -2.3314    0.3234 H   0  0  0  0  0  0  0  0  0  0  0  0
   -1.0443   -2.3677   -4.8145 H   0  0  0  0  0  0  0  0  0  0  0  0
    0.2870   -1.2426   -4.9945 H   0  0  0  0  0  0  0  0  0  0  0  0
    0.8887   -3.7130   -5.3188 H   0  0  0  0  0  0  0  0  0  0  0  0
    1.8904   -2.8746   -4.1481 H   0  0  0  0  0  0  0  0  0  0  0  0
   -0.5657   -4.5821   -3.4641 H   0  0  0  0  0  0  0  0  0  0  0  0
    1.0911   -5.1315   -3.2866 H   0  0  0  0  0  0  0  0  0  0  0  0
    1.1353    2.4686    1.7296 H   0  0  0  0  0  0  0  0  0  0  0  0
    0.3875    2.0693    0.1837 H   0  0  0  0  0  0  0  0  0  0  0  0
   -0.0212   -4.2892   -1.1621 H   0  0  0  0  0  0  0  0  0  0  0  0
    3.4205    2.9020    0.4575 H   0  0  0  0  0  0  0  0  0  0  0  0
    4.4495    1.4759    0.6440 H   0  0  0  0  0  0  0  0  0  0  0  0
    3.5267    2.0825    2.0291 H   0  0  0  0  0  0  0  0  0  0  0  0
    2.2722    1.7077   -1.5232 H   0  0  0  0  0  0  0  0  0  0  0  0
    1.5030    0.1299   -1.2774 H   0  0  0  0  0  0  0  0  0  0  0  0
    3.2673    0.2660   -1.2571 H   0  0  0  0  0  0  0  0  0  0  0  0
    2.5504   -2.8901   -2.0197 H   0  0  0  0  0  0  0  0  0  0  0  0
    1.9413   -2.9208   -0.3799 H   0  0  0  0  0  0  0  0  0  0  0  0
    4.3001   -3.9606   -1.2609 H   0  0  0  0  0  0  0  0  0  0  0  0
  1  5  1  0  0  0  0
  1 11  2  0  0  0  0
  1 39  1  0  0  0  0
  2  6  2  0  0  0  0
  2 11  1  0  0  0  0
  2 40  1  0  0  0  0
  3  7  2  0  0  0  0
  3 12  1  0  0  0  0
  3 41  1  0  0  0  0
  4  8  2  0  0  0  0
  4 13  1  0  0  0  0
  4 42  1  0  0  0  0
  5 16  2  0  0  0  0
  5 43  1  0  0  0  0
  6 16  1  0  0  0  0
  6 44  1  0  0  0  0
  7 17  1  0  0  0  0
  7 45  1  0  0  0  0
  8 18  1  0  0  0  0
  8 46  1  0  0  0  0
  9 12  2  0  0  0  0
  9 14  1  0  0  0  0
  9 47  1  0  0  0  0
 10 15  1  0  0  0  0
 10 18  2  0  0  0  0
 10 48  1  0  0  0  0
 11 12  1  0  0  0  0
 13 15  2  0  0  0  0
 13 20  1  0  0  0  0
 14 17  2  0  0  0  0
 14 25  1  0  0  0  0
 15 24  1  0  0  0  0
 16 29  1  0  0  0  0
 17 30  1  0  0  0  0
 18 38  1  0  0  0  0
 19 28  1  0  0  0  0
 19 31  2  0  0  0  0
 19 34  1  0  0  0  0
 20 21  1  0  0  0  0
 20 49  1  0  0  0  0
 20 50  1  0  0  0  0
 21 22  1  0  0  0  0
 21 51  1  0  0  0  0
 21 52  1  0  0  0  0
 22 24  1  0  0  0  0
 22 53  1  0  0  0  0
 22 54  1  0  0  0  0
 23 25  1  0  0  0  0
 23 30  1  0  0  0  0
 23 55  1  0  0  0  0
 23 56  1  0  0  0  0
 24 28  1  0  0  0  0
 24 57  1  0  0  0  0
 25 26  1  0  0  0  0
 25 27  1  0  0  0  0
 26 58  1  0  0  0  0
 26 59  1  0  0  0  0
 26 60  1  0  0  0  0
 27 61  1  0  0  0  0
 27 62  1  0  0  0  0
 27 63  1  0  0  0  0
 28 64  1  0  0  0  0
 28 65  1  0  0  0  0
 29 35  1  0  0  0  0
 29 36  1  0  0  0  0
 29 37  1  0  0  0  0
 30 38  1  0  0  0  0
 32 38  2  0  0  0  0
 33 38  2  0  0  0  0
 34 66  1  0  0  0  0
M  END
$$$$
