35
0 1 C12ClF2H15N4O
C                     0.767286492189    -0.605210350110    -6.067693389814
C                     2.177769008196     1.615201054206    -5.536858335736
C                     1.156653909026    -0.279760803895    -4.764640970299
C                     1.774730959592     1.268828105670    -6.838220626743
C                     0.788591743493    -1.192389203729    -3.622056883159
C                     2.101436518500    -2.565777000530    -0.970765617984
C                     0.882571446482    -0.608042607085     0.027553077294
C                     1.897563907114    -3.312594939377     0.347299590749
C                     0.726077478379    -1.427592672640     1.309382728357
C                     0.987111526305    -1.532144912956    -1.187100040466
C                     1.795051427983    -3.044895729854     2.764639288000
C                     2.477422588877    -2.213000896618     3.838461315786
N                     1.863495187244     0.834140931199    -4.506606573975
N                     1.079880858135     0.177833192584    -7.109973847001
N                     1.834900297608    -2.372394237241     1.472121141007
N                     1.192154164379    -0.755477992693    -2.404240698582
O                     0.163723036810    -2.237600297226    -3.821762398639
F                     3.836962982265    -2.202201596272     3.643245514390
F                     2.246904185108    -2.784472876314     5.072976518054
Cl                    2.207266589485     2.319560549515    -8.167127649919
H                     0.198305100909    -1.509158634990    -6.261234938017
H                     2.749697710160     2.518959734891    -5.344029795616
H                     3.070152061635    -2.053199856704    -0.947080519177
H                     2.109953969671    -3.274095842063    -1.804527282584
H                     0.029806668406     0.069866404566    -0.085914910004
H                     1.791097029566     0.002435395234     0.107353418713
H                     0.979234607106    -3.928576241809     0.285015803478
H                     2.735911775971    -3.995071094321     0.514979566028
H                     0.701081559995    -0.751288295629     2.169597469584
H                    -0.246458623673    -1.958479776588     1.292122666404
H                     0.040662569546    -2.066607667317    -1.318196095424
H                     2.339140725447    -3.991917891368     2.708893866173
H                     0.769828379045    -3.273668891306     3.102046455848
H                     2.146286821863    -1.172261414052     3.888070250508
H                     1.748741696207     0.092583056160    -2.381228125800
