
  -OEChem-05262117483D

 35 36  0     0  0  0  0  0  0999 V2000
   -2.6276   -1.2997    3.4104 C   0  0  0  0  0  0  0  0  0  0  0  0
   -3.3095   -3.8043    2.7293 C   0  0  0  0  0  0  0  0  0  0  0  0
   -1.8693   -2.0426    2.5002 C   0  0  0  0  0  0  0  0  0  0  0  0
   -4.0563   -3.0392    3.6421 C   0  0  0  0  0  0  0  0  0  0  0  0
   -0.6406   -1.4326    1.8736 C   0  0  0  0  0  0  0  0  0  0  0  0
    1.9838   -3.0607   -0.2041 C   0  0  0  0  0  0  0  0  0  0  0  0
    0.8735   -0.9172   -0.8859 C   0  0  0  0  0  0  0  0  0  0  0  0
    1.2590   -3.7562   -1.3604 C   0  0  0  0  0  0  0  0  0  0  0  0
    0.1770   -1.6885   -2.0050 C   0  0  0  0  0  0  0  0  0  0  0  0
    1.2216   -1.8309    0.3003 C   0  0  0  0  0  0  0  0  0  0  0  0
    0.4453   -3.4918   -3.6263 C   0  0  0  0  0  0  0  0  0  0  0  0
    0.8353   -2.8057   -4.9253 C   0  0  0  0  0  0  0  0  0  0  0  0
   -2.2175   -3.2968    2.1636 N   0  0  0  0  0  0  0  0  0  0  0  0
   -3.7288   -1.8053    3.9841 N   0  0  0  0  0  0  0  0  0  0  0  0
    1.0057   -2.8191   -2.4596 N   0  0  0  0  0  0  0  0  0  0  0  0
    0.0202   -2.2541    1.0242 N   0  0  0  0  0  0  0  0  0  0  0  0
   -0.2983   -0.2778    2.1418 O   0  0  0  0  0  0  0  0  0  0  0  0
    0.1704   -1.6090   -5.0926 F   0  0  0  0  0  0  0  0  0  0  0  0
    0.4783   -3.6077   -5.9878 F   0  0  0  0  0  0  0  0  0  0  0  0
   -5.4864   -3.7398    4.3639 Cl  0  0  0  0  0  0  0  0  0  0  0  0
   -2.3349   -0.2876    3.6716 H   0  0  0  0  0  0  0  0  0  0  0  0
   -3.6041   -4.8170    2.4671 H   0  0  0  0  0  0  0  0  0  0  0  0
    2.1481   -3.7705    0.6144 H   0  0  0  0  0  0  0  0  0  0  0  0
    2.9651   -2.7311   -0.5595 H   0  0  0  0  0  0  0  0  0  0  0  0
    1.8020   -0.4822   -1.2727 H   0  0  0  0  0  0  0  0  0  0  0  0
    0.2404   -0.0956   -0.5408 H   0  0  0  0  0  0  0  0  0  0  0  0
    1.8842   -4.5734   -1.7340 H   0  0  0  0  0  0  0  0  0  0  0  0
    0.3169   -4.2196   -1.0025 H   0  0  0  0  0  0  0  0  0  0  0  0
   -0.8100   -2.0484   -1.6554 H   0  0  0  0  0  0  0  0  0  0  0  0
   -0.0068   -1.0243   -2.8500 H   0  0  0  0  0  0  0  0  0  0  0  0
    1.8370   -1.2731    1.0117 H   0  0  0  0  0  0  0  0  0  0  0  0
   -0.6536   -3.5879   -3.5934 H   0  0  0  0  0  0  0  0  0  0  0  0
    0.8595   -4.5025   -3.6891 H   0  0  0  0  0  0  0  0  0  0  0  0
    1.9065   -2.5986   -4.9919 H   0  0  0  0  0  0  0  0  0  0  0  0
   -0.3797   -3.1740    0.8781 H   0  0  0  0  0  0  0  0  0  0  0  0
  1  3  1  0  0  0  0
  1 14  2  0  0  0  0
  1 21  1  0  0  0  0
  2  4  2  0  0  0  0
  2 13  1  0  0  0  0
  2 22  1  0  0  0  0
  3  5  1  0  0  0  0
  3 13  2  0  0  0  0
  4 14  1  0  0  0  0
  4 20  1  0  0  0  0
  5 16  1  0  0  0  0
  5 17  2  0  0  0  0
  6  8  1  0  0  0  0
  6 10  1  0  0  0  0
  6 23  1  0  0  0  0
  6 24  1  0  0  0  0
  7  9  1  0  0  0  0
  7 10  1  0  0  0  0
  7 25  1  0  0  0  0
  7 26  1  0  0  0  0
  8 15  1  0  0  0  0
  8 27  1  0  0  0  0
  8 28  1  0  0  0  0
  9 15  1  0  0  0  0
  9 29  1  0  0  0  0
  9 30  1  0  0  0  0
 10 16  1  0  0  0  0
 10 31  1  0  0  0  0
 11 12  1  0  0  0  0
 11 15  1  0  0  0  0
 11 32  1  0  0  0  0
 11 33  1  0  0  0  0
 12 18  1  0  0  0  0
 12 19  1  0  0  0  0
 12 34  1  0  0  0  0
 16 35  1  0  0  0  0
M  END
$$$$
