65
-1 1 C29F3H27NO4S
C                     5.611775636234    -4.356982590800     1.487369953844
C                     7.020312944441    -2.543103699133     2.264219233866
C                     3.305378099954    -2.534000882715     2.230848371734
C                     0.754710521692    -0.051344874103    -2.851828583729
C                     6.721863315999    -5.205544167209     1.498129782862
C                     8.125014732640    -3.389095940264     2.276004311978
C                     2.207566363083    -1.667390251715     2.251652259382
C                     0.370269421888     0.529609082775    -1.646637276206
C                     4.745862317920    -0.753138399701     1.447094461552
C                     0.420979674929    -1.681935486408    -0.631997115302
C                     5.750653384954    -3.011326135220     1.869262160486
C                     4.587178270555    -2.092829710465     1.851556806493
C                     0.997901126833    -1.432103289224    -2.965891355628
C                     3.654776709152     0.104276771827     1.423326250172
C                     0.822854311560    -2.265485433220    -1.843787574856
C                     7.976137863019    -4.728932695385     1.890627076521
C                     2.395878343960    -0.348970023283     1.832087212723
C                     0.216661168242    -0.308794836531    -0.535328710532
C                     2.263750668613    -5.562508348903    -0.401782469836
C                     1.417815139403    -2.011545942447    -4.302701608695
C                     2.076767679258    -3.389197663999    -4.168893319444
C                     1.213638415167    -4.305495108731    -3.296327497452
C                     2.146210567427     1.952098428605     1.363840307481
C                     1.081244325553    -3.759687810994    -1.866421262047
C                     3.580104549997     1.536513387249     0.921180506820
C                     4.633784838995     2.449604711306     1.565292509931
C                     3.723605947552     1.559189821375    -0.613765378154
C                     2.303876229126    -4.115091142171    -0.989990514920
C                     9.184177742050    -5.615368463739     1.894705932127
N                     1.434138017933     0.701766093052     1.747546263721
O                     1.396997720694    -6.347525315127    -0.860760883859
O                     3.132128386364    -5.781236001779     0.498198573495
O                    -0.710849716212     1.724778419524     0.900769686712
O                    -0.720819224357    -0.623137402895     1.915061749555
F                     8.894973723204    -6.913809701834     1.643324859706
F                    10.109842956937    -5.236040459356     0.960835967466
F                     9.844614581646    -5.584783851916     3.091408083584
S                    -0.104075139434     0.399279334627     1.069478064982
H                     4.650576848998    -4.756197487518     1.143862420527
H                     7.136213125451    -1.513945931878     2.594151503733
H                     3.163006463993    -3.573075970659     2.511634938026
H                     0.878599209501     0.580726003211    -3.729743117296
H                     6.596190216178    -6.239017845585     1.191093963129
H                     9.094678365542    -3.017243569419     2.596419234460
H                     1.230934598756    -2.013411646663     2.571383902957
H                     0.184046579721     1.595252078800    -1.560802721762
H                     5.718049798027    -0.405503342350     1.105606046217
H                     0.264343680955    -2.312614913413     0.236104583616
H                     0.523545823213    -2.104318359380    -4.936306628951
H                     2.081886532127    -1.303968150095    -4.814661641933
H                     2.224620273470    -3.824955184048    -5.164332401678
H                     3.071664815235    -3.277430563384    -3.720766848316
H                     0.218076685530    -4.392483370038    -3.754196491453
H                     1.622423947416    -5.316356102960    -3.232097782699
H                     2.179778124728     2.598386958751     2.246740817520
H                     1.597864981238     2.483547322956     0.585634206508
H                     0.228440536533    -4.263629534173    -1.399863913803
H                     4.493347742622     3.490312845414     1.248517575227
H                     5.644634270702     2.146614906442     1.272452387468
H                     4.572341951354     2.410071786935     2.657599496744
H                     3.604215932798     2.579274591348    -1.000042696421
H                     2.974522018971     0.920318276056    -1.087323190551
H                     4.712046063205     1.193453246805    -0.911733000242
H                     2.394070272434    -3.419007211129    -0.152312637330
H                     3.233906944330    -3.999801589328    -1.562174931187
