
  -OEChem-05262117483D

 52 56  0     1  0  0  0  0  0999 V2000
   -3.6206   -0.3256   -0.8389 C   0  0  0  0  0  0  0  0  0  0  0  0
   -2.7288    0.7856   -0.5758 C   0  0  0  0  0  0  0  0  0  0  0  0
   -1.7215    0.4337    0.2807 C   0  0  0  0  0  0  0  0  0  0  0  0
   -4.8084   -0.3353   -1.6726 C   0  0  0  0  0  0  0  0  0  0  0  0
   -3.2650   -1.4746   -0.1638 C   0  0  0  0  0  0  0  0  0  0  0  0
   -5.1401   -2.7327   -1.0118 C   0  0  0  0  0  0  0  0  0  0  0  0
    0.7216    1.1264    2.9250 C   0  0  0  0  0  0  0  0  0  0  0  0
   -6.7622   -2.8437   -3.6112 C   0  0  0  0  0  0  0  0  0  0  0  0
   -0.9449    1.5784    4.5086 C   0  0  0  0  0  0  0  0  0  0  0  0
   -1.5149    1.8089    3.0972 C   0  0  0  0  0  0  0  0  0  0  0  0
   -2.1174   -5.9755    0.5235 C   0  0  0  0  0  0  0  0  0  0  0  0
   -2.9459   -5.5378   -1.3382 C   0  0  0  0  0  0  0  0  0  0  0  0
   -6.3779   -1.4968   -4.1754 C   0  0  1  0  0  0  0  0  0  0  0  0
   -2.4986   -4.6425   -0.1582 C   0  0  0  0  0  0  0  0  0  0  0  0
   -6.5789   -1.6719   -2.6827 C   0  0  2  0  0  0  0  0  0  0  0  0
   -2.9152    2.1436   -1.1974 C   0  0  0  0  0  0  0  0  0  0  0  0
   -5.0018   -1.2950   -4.7740 C   0  0  0  0  0  0  0  0  0  0  0  0
   -0.5650    1.2284    0.8153 C   0  0  0  0  0  0  0  0  0  0  0  0
   -3.5750   -3.8290    0.5509 C   0  0  0  0  0  0  0  0  0  0  0  0
   -5.4307   -1.6108   -1.7953 N   0  0  0  0  0  0  0  0  0  0  0  0
   -3.9857   -2.6440   -0.2185 N   0  0  0  0  0  0  0  0  0  0  0  0
    0.4928    1.5500    4.2324 N   0  0  0  0  0  0  0  0  0  0  0  0
   -0.5029    1.1684    2.2653 N   0  0  0  0  0  0  0  0  0  0  0  0
   -5.2756    0.6388   -2.2545 O   0  0  0  0  0  0  0  0  0  0  0  0
   -5.8247   -3.7482   -1.0129 O   0  0  0  0  0  0  0  0  0  0  0  0
    1.7943    0.7853    2.4431 O   0  0  0  0  0  0  0  0  0  0  0  0
   -2.5148   -6.7406   -0.6411 O   0  0  0  0  0  0  0  0  0  0  0  0
   -1.8435   -1.2504    0.8111 S   0  0  0  0  0  0  0  0  0  0  0  0
   -7.7729   -3.2215   -3.7309 H   0  0  0  0  0  0  0  0  0  0  0  0
   -5.9985   -3.6135   -3.5956 H   0  0  0  0  0  0  0  0  0  0  0  0
   -1.2089    2.3827    5.1994 H   0  0  0  0  0  0  0  0  0  0  0  0
   -1.3022    0.6236    4.9181 H   0  0  0  0  0  0  0  0  0  0  0  0
   -2.4976    1.3514    2.9569 H   0  0  0  0  0  0  0  0  0  0  0  0
   -1.5906    2.8828    2.8677 H   0  0  0  0  0  0  0  0  0  0  0  0
   -1.0552   -6.1089    0.7578 H   0  0  0  0  0  0  0  0  0  0  0  0
   -2.7197   -6.2373    1.4040 H   0  0  0  0  0  0  0  0  0  0  0  0
   -4.0227   -5.5455   -1.5338 H   0  0  0  0  0  0  0  0  0  0  0  0
   -2.3946   -5.4000   -2.2749 H   0  0  0  0  0  0  0  0  0  0  0  0
   -7.1668   -0.9223   -4.6551 H   0  0  0  0  0  0  0  0  0  0  0  0
   -1.6351   -4.0148   -0.3909 H   0  0  0  0  0  0  0  0  0  0  0  0
   -7.4695   -1.2230   -2.2533 H   0  0  0  0  0  0  0  0  0  0  0  0
   -3.9168    2.5271   -0.9885 H   0  0  0  0  0  0  0  0  0  0  0  0
   -2.1757    2.8596   -0.8335 H   0  0  0  0  0  0  0  0  0  0  0  0
   -2.8316    2.0832   -2.2866 H   0  0  0  0  0  0  0  0  0  0  0  0
   -4.2398   -1.8579   -4.2248 H   0  0  0  0  0  0  0  0  0  0  0  0
   -4.7197   -0.2388   -4.7575 H   0  0  0  0  0  0  0  0  0  0  0  0
   -4.9835   -1.6452   -5.8119 H   0  0  0  0  0  0  0  0  0  0  0  0
    0.3917    0.8408    0.4517 H   0  0  0  0  0  0  0  0  0  0  0  0
   -0.6500    2.2674    0.4705 H   0  0  0  0  0  0  0  0  0  0  0  0
   -3.2171   -3.4881    1.5285 H   0  0  0  0  0  0  0  0  0  0  0  0
   -4.4689   -4.4322    0.7094 H   0  0  0  0  0  0  0  0  0  0  0  0
    1.1407    1.1964    4.9256 H   0  0  0  0  0  0  0  0  0  0  0  0
  1  2  1  0  0  0  0
  1  4  1  0  0  0  0
  1  5  2  0  0  0  0
  2  3  2  0  0  0  0
  2 16  1  0  0  0  0
  3 18  1  0  0  0  0
  3 28  1  0  0  0  0
  4 20  1  0  0  0  0
  4 24  2  0  0  0  0
  5 21  1  0  0  0  0
  5 28  1  0  0  0  0
  6 20  1  0  0  0  0
  6 21  1  0  0  0  0
  6 25  2  0  0  0  0
  7 22  1  0  0  0  0
  7 23  1  0  0  0  0
  7 26  2  0  0  0  0
  8 13  1  0  0  0  0
  8 15  1  0  0  0  0
  8 29  1  0  0  0  0
  8 30  1  0  0  0  0
  9 10  1  0  0  0  0
  9 22  1  0  0  0  0
  9 31  1  0  0  0  0
  9 32  1  0  0  0  0
 10 23  1  0  0  0  0
 10 33  1  0  0  0  0
 10 34  1  0  0  0  0
 11 14  1  0  0  0  0
 11 27  1  0  0  0  0
 11 35  1  0  0  0  0
 11 36  1  0  0  0  0
 12 14  1  0  0  0  0
 12 27  1  0  0  0  0
 12 37  1  0  0  0  0
 12 38  1  0  0  0  0
 13 15  1  0  0  0  0
 13 17  1  0  0  0  0
 13 39  1  0  0  0  0
 14 19  1  0  0  0  0
 14 40  1  0  0  0  0
 15 20  1  0  0  0  0
 15 41  1  0  0  0  0
 16 42  1  0  0  0  0
 16 43  1  0  0  0  0
 16 44  1  0  0  0  0
 17 45  1  0  0  0  0
 17 46  1  0  0  0  0
 17 47  1  0  0  0  0
 18 23  1  0  0  0  0
 18 48  1  0  0  0  0
 18 49  1  0  0  0  0
 19 21  1  0  0  0  0
 19 50  1  0  0  0  0
 19 51  1  0  0  0  0
 22 52  1  0  0  0  0
M  END
$$$$
