65
-1 1 C29F3H27NO4S
C                     6.699250377847    -3.407397243048     0.774415064853
C                     6.918100413536    -2.215542090252     2.859375021177
C                     4.073385781305    -1.940291453139     0.476874187143
C                    -0.013002577288    -1.223052525371     3.476366380027
C                     7.734710714474    -4.261786293529     1.148406026018
C                     7.956483729280    -3.062312094880     3.238627850645
C                     3.017375339836    -1.109383101476     0.094002182436
C                     0.127031296634    -0.897298315961     2.129579342628
C                     5.197335490941    -0.096126151590     1.567354290179
C                    -0.175664957757     1.443928124420     2.730291273689
C                     6.267201675656    -2.367562478884     1.619102370857
C                     5.168603470322    -1.462478114034     1.218669334659
C                    -0.181745357369    -0.239213462687     4.464970318361
C                     4.156546683767     0.740314107506     1.195982137069
C                    -0.243345659355     1.120878280437     4.093777281153
C                     8.367385398860    -4.092916505627     2.384234910711
C                     3.061510349072     0.233263679885     0.479030293229
C                     0.038148538579     0.453569439747     1.772179843885
C                     1.357461642426     4.228480075685     5.869077418461
C                    -0.320042995571    -0.652972541035     5.917480887497
C                     0.034634870693     0.469253823638     6.900831530199
C                    -0.662387026954     1.774545149598     6.504605013609
C                     2.527800116455     2.460462491026     1.024025806666
C                    -0.229070003409     2.246649328072     5.109052645214
C                     4.023096494027     2.243272478954     1.376432693055
C                     4.333473739755     2.717805845414     2.803594223854
C                     4.923646603947     2.965293131375     0.352494364673
C                     1.188122024537     2.867022092256     5.109079829047
C                     9.518152730011    -4.970678577947     2.777892261360
N                     2.138606079239     1.274180897201     0.201092790580
O                     0.323781468519     4.722371659987     6.396441705049
O                     2.537468162927     4.671762231081     5.831486823166
O                     0.297392898595    -0.188735931199    -0.791938815810
O                    -0.154144267826     2.249634379675    -0.178615300626
F                     9.523567160104    -6.153339980513     2.109661699805
F                    10.725124385466    -4.383940227314     2.525671733963
F                     9.513738249051    -5.264419465858     4.105145976177
S                     0.454205172081     0.952270694551     0.114874508573
H                     6.234874906619    -3.531789284219    -0.199318411767
H                     6.584964949344    -1.443231901839     3.546225815329
H                     4.023818609248    -2.994418473539     0.217278284122
H                     0.033679827538    -2.268877252761     3.775148786850
H                     8.053562034717    -5.054618635643     0.478876456122
H                     8.433806431151    -2.935010145270     4.205896930210
H                     2.182796255198    -1.493906768800    -0.479355684296
H                     0.292313681098    -1.657330883988     1.374465074599
H                     6.048963331779     0.310047880540     2.107146552274
H                    -0.266790797464     2.481304029632     2.422425227831
H                    -1.364754514031    -0.954208239865     6.085110215224
H                     0.287491416180    -1.547255166032     6.103037516723
H                    -0.254865709645     0.170803983525     7.915654733501
H                     1.120255576446     0.617680426955     6.915240311256
H                    -1.750087997116     1.612141573828     6.515228129694
H                    -0.446319627293     2.582861238063     7.206213422435
H                     1.940264671481     2.487967450236     1.945038654270
H                     2.342322488095     3.373884095747     0.459135219814
H                    -0.914135364235     3.039096831351     4.790233964621
H                     4.078830824299     3.773003264308     2.942290173743
H                     5.400129300497     2.600839806249     3.025686570648
H                     3.764504159711     2.152006555455     3.544748246721
H                     4.802837706338     4.050879430026     0.440173704959
H                     4.670828169802     2.669114795022    -0.671053097545
H                     5.977528329542     2.723763539414     0.527026893783
H                     1.497489489020     3.057702749704     4.075843100351
H                     1.921419681447     2.152147390678     5.501994680568
