19
0 1 C8F3H4NOS2
C                     0.407005681743    -0.580230989681    -0.981012340903
C                    -0.495974388761    -1.540727262420    -1.436035097066
C                     1.666520617763    -0.692221969299    -3.079219656018
C                     0.762959468347    -1.658915050053    -3.543047074283
C                     1.467610360379    -0.179719778133    -1.805186891393
C                    -0.309615473966    -2.074869472977    -2.713429581632
C                    -0.145468603252    -3.116591309533    -4.934432399690
C                     3.437664814221     0.449722099171    -0.671665927089
N                     0.821139687437    -2.268513962023    -4.787975991922
O                     2.325057817008     0.841180644425    -1.341114453496
F                     3.152229082168    -0.263843158690     0.443726727754
F                     4.104281639288     1.551235007290    -0.307986835848
F                     4.259360195938    -0.317748451435    -1.425245724085
S                    -1.263590986986    -3.280787367269    -3.556978643332
S                    -0.319709762098    -4.043486104712    -6.422040393319
H                     0.299331026004    -0.135567634140     0.002539024007
H                    -1.321309922302    -1.856729889444    -0.805639504842
H                     2.490166774225    -0.358283653318    -3.700459768108
H                    -1.423816061890    -4.720531758452    -6.043866138133
