
  -OEChem-05262117483D

 25 26  0     0  0  0  0  0  0999 V2000
   -4.9317    0.2669   -3.0007 C   0  0  0  0  0  0  0  0  0  0  0  0
   -3.5964    0.6324   -2.7923 C   0  0  0  0  0  0  0  0  0  0  0  0
   -5.3451   -1.0600   -2.8857 C   0  0  0  0  0  0  0  0  0  0  0  0
   -2.6444   -0.3420   -2.4609 C   0  0  0  0  0  0  0  0  0  0  0  0
   -4.3913   -2.0210   -2.5569 C   0  0  0  0  0  0  0  0  0  0  0  0
   -3.0610   -1.6796   -2.3461 C   0  0  0  0  0  0  0  0  0  0  0  0
    1.9473    2.9455   -1.2570 C   0  0  0  0  0  0  0  0  0  0  0  0
    1.2823    2.2543   -0.0720 C   0  0  0  0  0  0  0  0  0  0  0  0
    0.6366    1.2065   -2.0099 C   0  0  0  0  0  0  0  0  0  0  0  0
   -0.8538    1.2274   -2.3262 C   0  0  0  0  0  0  0  0  0  0  0  0
    1.1580    2.4863   -2.3626 O   0  0  0  0  0  0  0  0  0  0  0  0
    0.9053    0.9908   -0.6312 O   0  0  0  0  0  0  0  0  0  0  0  0
   -1.3229   -0.1155   -2.2357 O   0  0  0  0  0  0  0  0  0  0  0  0
   -4.7501   -3.3176   -2.4366 F   0  0  0  0  0  0  0  0  0  0  0  0
   -2.1657   -2.6342   -2.0317 F   0  0  0  0  0  0  0  0  0  0  0  0
   -5.6572    1.0331   -3.2572 H   0  0  0  0  0  0  0  0  0  0  0  0
   -3.3044    1.6711   -2.8905 H   0  0  0  0  0  0  0  0  0  0  0  0
   -6.3749   -1.3628   -3.0434 H   0  0  0  0  0  0  0  0  0  0  0  0
    1.8925    4.0359   -1.2293 H   0  0  0  0  0  0  0  0  0  0  0  0
    2.9912    2.6274   -1.3748 H   0  0  0  0  0  0  0  0  0  0  0  0
    1.9501    2.0662    0.7711 H   0  0  0  0  0  0  0  0  0  0  0  0
    0.3999    2.8095    0.2744 H   0  0  0  0  0  0  0  0  0  0  0  0
    1.1341    0.4045   -2.5692 H   0  0  0  0  0  0  0  0  0  0  0  0
   -0.9980    1.6213   -3.3397 H   0  0  0  0  0  0  0  0  0  0  0  0
   -1.3726    1.8733   -1.6077 H   0  0  0  0  0  0  0  0  0  0  0  0
  1  2  1  0  0  0  0
  1  3  2  0  0  0  0
  1 16  1  0  0  0  0
  2  4  2  0  0  0  0
  2 17  1  0  0  0  0
  3  5  1  0  0  0  0
  3 18  1  0  0  0  0
  4  6  1  0  0  0  0
  4 13  1  0  0  0  0
  5  6  2  0  0  0  0
  5 14  1  0  0  0  0
  6 15  1  0  0  0  0
  7  8  1  0  0  0  0
  7 11  1  0  0  0  0
  7 19  1  0  0  0  0
  7 20  1  0  0  0  0
  8 12  1  0  0  0  0
  8 21  1  0  0  0  0
  8 22  1  0  0  0  0
  9 10  1  0  0  0  0
  9 11  1  0  0  0  0
  9 12  1  0  0  0  0
  9 23  1  0  0  0  0
 10 13  1  0  0  0  0
 10 24  1  0  0  0  0
 10 25  1  0  0  0  0
M  END
$$$$
