25
0 1 C10ClH10N3O
C                    -0.127889145810    -2.569011490395     2.792271932379
C                    -0.239903710857    -1.636207272761     1.756507821574
C                     1.134925633459    -2.945107544963     3.255344437020
C                     0.908812942184    -1.085555839211     1.182168458119
C                     7.460157734013    -2.861271528799     4.564156347212
C                     5.530800341487    -3.591741760122     5.382084759788
C                     6.890382460498    -3.846463803446     5.421700516268
C                     2.293348190310    -2.400526752998     2.690036593937
C                     2.169468048714    -1.467017708362     1.647401503351
C                     4.128641407288    -1.944966908424     4.110429826501
N                     6.530256619599    -2.070750770328     4.030132159048
N                     5.360360251963    -2.511746261036     4.545770593037
N                     7.588161309103    -4.792249087315     6.203253768934
O                     3.526206522856    -2.824169670992     3.134284492450
Cl                    3.605697353816    -0.790273680340     0.910446708029
H                    -1.018874441149    -3.004643733030     3.235690112777
H                    -1.217529899706    -1.338151659086     1.388461954700
H                     1.249064860882    -3.677056747213     4.050311157203
H                     0.835452004781    -0.366751689921     0.371947495741
H                     8.506270942360    -2.700760174315     4.330332707877
H                     4.692002597917    -4.079380157869     5.859717490712
H                     3.441102545177    -1.838431232546     4.957722266622
H                     4.348312429670    -0.971254212594     3.668353475465
H                     8.429182369557    -5.118378605078     5.737322680753
H                     7.014015672133    -5.595248992728     6.439547887952
