38
0 1 C15Cl2H16N4O
C                    -3.141774710111     2.201829955117    -9.946851724583
C                    -2.286110458971     1.857203143207    -8.901276520123
C                    -4.264153583656     3.005930633797    -9.723368864125
C                    -3.654397421387     3.161992592208    -7.369141746202
C                    -0.706398478603     1.329013864055    -4.650833674573
C                    -2.552983130733     2.333624894418    -7.611848127736
C                    -4.502384263719     3.475267898098    -8.431163963582
C                     0.263572140582     1.566002967379    -5.679971158466
C                    -1.918048139977     1.608717172846    -5.270003047445
C                    -0.528228094300     0.890057070885    -3.278090971251
C                    -0.167536721716     0.346883631003    -0.498666588404
C                     2.181958509464     0.507725858829    -1.043744431232
C                    -0.115032822519     1.774733864775     0.054071978274
C                     2.188431452731     1.924308306379    -0.464964847637
C                     1.750330831246     1.435480196551    -5.595806782551
N                    -0.316891904034     1.950540700233    -6.812788618711
N                     0.653851679010     0.662635449196    -2.809183382970
N                    -1.664611886147     1.988146048989    -6.561118483238
N                     0.846895626006     0.159623204620    -1.549660572794
O                     1.192012921690     2.068220705290     0.552021727353
Cl                   -5.890442001114     4.507747194285    -8.129067346348
Cl                   -3.509114606961     1.423693435655    -4.621259658928
H                    -2.940350622847     1.834225162739   -10.949021977980
H                    -1.413785174480     1.235280075008    -9.065831127169
H                    -4.936776226100     3.268008198015   -10.533439852390
H                    -3.841609338095     3.571077051372    -6.384244784189
H                    -1.443950117025     0.760210710244    -2.697224979501
H                     0.073765133541    -0.358552528259     0.302605103616
H                    -1.161786240039     0.086087374148    -0.866710465572
H                     2.892147595555     0.417605519323    -1.868264391563
H                     2.447632499593    -0.212688365042    -0.262628908662
H                    -0.390622450553     2.498768909625    -0.726886336329
H                    -0.799986436994     1.894327575713     0.897979853874
H                     3.145988839287     2.153706431409     0.010607404814
H                     2.009390931757     2.652550669894    -1.270867776894
H                     2.034245771497     0.421699154848    -5.298909516623
H                     2.194310219951     1.673250159059    -6.565413978702
H                     2.156540540504     2.108421387800    -4.834616258367
