
  -OEChem-05262117483D

 20 21  0     1  0  0  0  0  0999 V2000
    0.9428    2.6760   -0.7754 C   0  0  0  0  0  0  0  0  0  0  0  0
    1.9678    3.6122   -0.6222 C   0  0  0  0  0  0  0  0  0  0  0  0
    3.4170    2.0255    0.1493 C   0  0  0  0  0  0  0  0  0  0  0  0
    1.1601    1.3329   -0.4467 C   0  0  0  0  0  0  0  0  0  0  0  0
    2.4476    1.0285    0.0198 C   0  0  0  0  0  0  0  0  0  0  0  0
    0.2589   -0.5580   -1.9262 C   0  0  0  0  0  0  0  0  0  0  0  0
   -0.9454    0.2669   -2.4454 C   0  0  0  0  0  0  0  0  0  0  0  0
    0.1097    0.2532   -0.5973 C   0  0  2  0  0  0  0  0  0  0  0  0
    3.1887    3.3060   -0.1649 N   0  0  0  0  0  0  0  0  0  0  0  0
   -1.2447    0.6512   -1.0408 N   0  0  0  0  0  0  0  0  0  0  0  0
    2.8799   -0.6225    0.4398 Cl  0  0  0  0  0  0  0  0  0  0  0  0
   -0.0210    3.0024   -1.1556 H   0  0  0  0  0  0  0  0  0  0  0  0
    1.7983    4.6565   -0.8789 H   0  0  0  0  0  0  0  0  0  0  0  0
    4.4090    1.7731    0.5185 H   0  0  0  0  0  0  0  0  0  0  0  0
    0.0303   -1.6159   -1.7879 H   0  0  0  0  0  0  0  0  0  0  0  0
    1.2059   -0.4501   -2.4564 H   0  0  0  0  0  0  0  0  0  0  0  0
   -0.6317    1.1003   -3.0895 H   0  0  0  0  0  0  0  0  0  0  0  0
   -1.7541   -0.2817   -2.9384 H   0  0  0  0  0  0  0  0  0  0  0  0
    0.0958   -0.3504    0.3158 H   0  0  0  0  0  0  0  0  0  0  0  0
   -1.5214    1.6160   -0.8751 H   0  0  0  0  0  0  0  0  0  0  0  0
  1  2  1  0  0  0  0
  1  4  2  0  0  0  0
  1 12  1  0  0  0  0
  2  9  2  0  0  0  0
  2 13  1  0  0  0  0
  3  5  2  0  0  0  0
  3  9  1  0  0  0  0
  3 14  1  0  0  0  0
  4  5  1  0  0  0  0
  4  8  1  0  0  0  0
  5 11  1  0  0  0  0
  6  7  1  0  0  0  0
  6  8  1  0  0  0  0
  6 15  1  0  0  0  0
  6 16  1  0  0  0  0
  7 10  1  0  0  0  0
  7 17  1  0  0  0  0
  7 18  1  0  0  0  0
  8 10  1  0  0  0  0
  8 19  1  0  0  0  0
 10 20  1  0  0  0  0
M  END
$$$$
