44
0 1 C15H23N3O2S
C                    -1.495375463106     2.381842569335    -4.571316501171
C                    -2.731814161033     2.663035395555    -5.161096382491
C                    -1.444590066901     1.461353464292    -3.525593582184
C                    -3.860633391112     2.004810077483    -4.667899089273
C                    -2.634823265088     0.853131011040    -3.100099597015
C                    -0.937057304836     1.622408595985     0.849628545835
C                    -0.514909836347     0.418857171596     1.700771094129
C                     0.110244932953    -2.051082814480     1.701159960003
C                    -2.046274535715     1.241350065704    -0.129955635736
C                     1.579812587539    -1.883235555701     2.124478614078
C                    -1.365653199812    -1.071563102568    -0.124752135679
C                     1.129011427242    -0.641404706042     0.071630945975
C                    -0.197245915680    -0.815170811922     0.831472597448
C                     4.669320147046    -0.417915193827     1.903125337344
C                    -2.627184523258    -0.187033748033    -1.995709107893
N                    -3.825480217801     1.122036416513    -3.658459650244
N                    -1.640659780395     0.098899140718    -0.956640190156
N                     2.139851862936    -0.937806461013     1.120095616759
O                     3.875522268194    -0.417667269012    -0.638231267352
O                     4.049103426639    -2.632592571474     0.608868822048
S                     3.713980383427    -1.200429437599     0.591677658967
H                    -0.589165204947     2.869827773951    -4.921920851227
H                    -2.823286670023     3.373296936589    -5.978021565037
H                    -0.513701153264     1.209863804707    -3.027302132797
H                    -4.842636404671     2.197828375259    -5.098020480437
H                    -1.285100352524     2.435581012505     1.496426059789
H                    -0.081408114079     2.008577538759     0.285281418687
H                     0.347348089841     0.675815316725     2.325471194370
H                    -1.336427901365     0.156120734124     2.380530432107
H                     0.001623240510    -2.959490729719     1.098150860087
H                    -0.559724309121    -2.138022365025     2.561169862023
H                    -2.974557590264     1.005632093666     0.428314452076
H                    -2.273920994218     2.084870197286    -0.787868860965
H                     1.668709622796    -1.439040839498     3.121635019239
H                     2.118875511143    -2.833922787993     2.116560038048
H                    -1.121669940128    -1.914546383870    -0.780826904027
H                    -2.255487153710    -1.367957311472     0.467309827653
H                     1.182978459092    -1.351324059925    -0.762993208686
H                     1.288948550367     0.358342762413    -0.325909639340
H                     5.722467861516    -0.577532873837     1.664892656992
H                     4.426048667753     0.644253939023     1.917278446432
H                     4.421461209346    -0.895006645257     2.852552836827
H                    -3.653322307923    -0.275526603028    -1.601103000715
H                    -2.375620175602    -1.156481206752    -2.443510092703
