
  -OEChem-05262117483D

 44 46  0     1  0  0  0  0  0999 V2000
   -2.9819    2.1398   -5.5661 C   0  0  0  0  0  0  0  0  0  0  0  0
   -1.8932    1.7488   -6.3465 C   0  0  0  0  0  0  0  0  0  0  0  0
   -3.1778    1.5135   -4.3327 C   0  0  0  0  0  0  0  0  0  0  0  0
   -1.0559    0.7413   -5.8533 C   0  0  0  0  0  0  0  0  0  0  0  0
   -2.2795    0.5214   -3.9193 C   0  0  0  0  0  0  0  0  0  0  0  0
   -0.5835    2.1579   -0.2484 C   0  0  0  0  0  0  0  0  0  0  0  0
   -0.3563    1.2024    0.9283 C   0  0  0  0  0  0  0  0  0  0  0  0
   -0.0753   -1.2249    1.6512 C   0  0  0  0  0  0  0  0  0  0  0  0
   -1.7039    1.6583   -1.1609 C   0  0  0  0  0  0  0  0  0  0  0  0
    1.3999   -1.1619    2.0949 C   0  0  0  0  0  0  0  0  0  0  0  0
   -1.3559   -0.6240   -0.4651 C   0  0  0  0  0  0  0  0  0  0  0  0
    1.1726   -0.4576   -0.2369 C   0  0  0  0  0  0  0  0  0  0  0  0
   -0.1895   -0.2550    0.4540 C   0  0  1  0  0  0  0  0  0  0  0  0
    3.9957   -2.3999    0.1040 C   0  0  0  0  0  0  0  0  0  0  0  0
   -2.4307   -0.1756   -2.5833 C   0  0  0  0  0  0  0  0  0  0  0  0
   -1.2357    0.1362   -4.6740 N   0  0  0  0  0  0  0  0  0  0  0  0
   -1.4451    0.2863   -1.6044 N   0  0  1  0  0  0  0  0  0  0  0  0
    2.0787   -0.5801    0.9162 N   0  0  2  0  0  0  0  0  0  0  0  0
    4.3079   -0.6464    2.0571 O   0  0  0  0  0  0  0  0  0  0  0  0
    4.1035    0.1960   -0.3549 O   0  0  0  0  0  0  0  0  0  0  0  0
    3.7133   -0.7199    0.7195 S   0  0  0  0  0  0  0  0  0  0  0  0
   -3.6628    2.9154   -5.9078 H   0  0  0  0  0  0  0  0  0  0  0  0
   -1.6945    2.2033   -7.3129 H   0  0  0  0  0  0  0  0  0  0  0  0
   -4.0123    1.7894   -3.6935 H   0  0  0  0  0  0  0  0  0  0  0  0
   -0.2017    0.4030   -6.4386 H   0  0  0  0  0  0  0  0  0  0  0  0
   -0.8365    3.1569    0.1239 H   0  0  0  0  0  0  0  0  0  0  0  0
    0.3339    2.2611   -0.8367 H   0  0  0  0  0  0  0  0  0  0  0  0
    0.5176    1.5128    1.5104 H   0  0  0  0  0  0  0  0  0  0  0  0
   -1.2239    1.2458    1.6003 H   0  0  0  0  0  0  0  0  0  0  0  0
   -0.3223   -2.2410    1.3226 H   0  0  0  0  0  0  0  0  0  0  0  0
   -0.7581   -0.9649    2.4646 H   0  0  0  0  0  0  0  0  0  0  0  0
   -2.6760    1.7200   -0.6275 H   0  0  0  0  0  0  0  0  0  0  0  0
   -1.7781    2.3026   -2.0412 H   0  0  0  0  0  0  0  0  0  0  0  0
    1.5581   -0.5134    2.9595 H   0  0  0  0  0  0  0  0  0  0  0  0
    1.7891   -2.1545    2.3492 H   0  0  0  0  0  0  0  0  0  0  0  0
   -1.2131   -1.6414   -0.8464 H   0  0  0  0  0  0  0  0  0  0  0  0
   -2.2933   -0.6289    0.1298 H   0  0  0  0  0  0  0  0  0  0  0  0
    1.1524   -1.3712   -0.8507 H   0  0  0  0  0  0  0  0  0  0  0  0
    1.4808    0.3703   -0.8713 H   0  0  0  0  0  0  0  0  0  0  0  0
    5.0732   -2.5182   -0.0241 H   0  0  0  0  0  0  0  0  0  0  0  0
    3.6235   -3.1144    0.8401 H   0  0  0  0  0  0  0  0  0  0  0  0
    3.4871   -2.5141   -0.8546 H   0  0  0  0  0  0  0  0  0  0  0  0
   -3.4655   -0.0499   -2.2114 H   0  0  0  0  0  0  0  0  0  0  0  0
   -2.2649   -1.2442   -2.7467 H   0  0  0  0  0  0  0  0  0  0  0  0
  1  2  1  0  0  0  0
  1  3  2  0  0  0  0
  1 22  1  0  0  0  0
  2  4  2  0  0  0  0
  2 23  1  0  0  0  0
  3  5  1  0  0  0  0
  3 24  1  0  0  0  0
  4 16  1  0  0  0  0
  4 25  1  0  0  0  0
  5 15  1  0  0  0  0
  5 16  2  0  0  0  0
  6  7  1  0  0  0  0
  6  9  1  0  0  0  0
  6 26  1  0  0  0  0
  6 27  1  0  0  0  0
  7 13  1  0  0  0  0
  7 28  1  0  0  0  0
  7 29  1  0  0  0  0
  8 10  1  0  0  0  0
  8 13  1  0  0  0  0
  8 30  1  0  0  0  0
  8 31  1  0  0  0  0
  9 17  1  0  0  0  0
  9 32  1  0  0  0  0
  9 33  1  0  0  0  0
 10 18  1  0  0  0  0
 10 34  1  0  0  0  0
 10 35  1  0  0  0  0
 11 13  1  0  0  0  0
 11 17  1  0  0  0  0
 11 36  1  0  0  0  0
 11 37  1  0  0  0  0
 12 13  1  0  0  0  0
 12 18  1  0  0  0  0
 12 38  1  0  0  0  0
 12 39  1  0  0  0  0
 14 21  1  0  0  0  0
 14 40  1  0  0  0  0
 14 41  1  0  0  0  0
 14 42  1  0  0  0  0
 15 17  1  0  0  0  0
 15 43  1  0  0  0  0
 15 44  1  0  0  0  0
 18 21  1  0  0  0  0
 19 21  2  0  0  0  0
 20 21  2  0  0  0  0
M  END
$$$$
