
  -OEChem-05262117483D

 31 33  0     0  0  0  0  0  0999 V2000
    9.5825    3.7309   -2.0718 C   0  0  0  0  0  0  0  0  0  0  0  0
    8.7550    4.8798   -2.0835 C   0  0  0  0  0  0  0  0  0  0  0  0
    9.0806    2.5159   -1.6439 C   0  0  0  0  0  0  0  0  0  0  0  0
    4.1921   -2.0795   -1.3848 C   0  0  0  0  0  0  0  0  0  0  0  0
    7.4357    4.7982   -1.6833 C   0  0  0  0  0  0  0  0  0  0  0  0
    3.2932   -1.9765   -2.4426 C   0  0  0  0  0  0  0  0  0  0  0  0
    5.8668   -0.9207   -2.6829 C   0  0  0  0  0  0  0  0  0  0  0  0
    5.1321    2.3294   -0.5012 C   0  0  0  0  0  0  0  0  0  0  0  0
    7.7358    2.4133   -1.2083 C   0  0  0  0  0  0  0  0  0  0  0  0
    5.4825   -1.5347   -1.4803 C   0  0  0  0  0  0  0  0  0  0  0  0
    6.8948    3.5629   -1.2444 C   0  0  0  0  0  0  0  0  0  0  0  0
    3.6779   -1.3529   -3.6330 C   0  0  0  0  0  0  0  0  0  0  0  0
    4.9784   -0.8354   -3.7518 C   0  0  0  0  0  0  0  0  0  0  0  0
    7.1091    1.2076   -0.7289 C   0  0  0  0  0  0  0  0  0  0  0  0
    6.3895   -1.7090   -0.3323 C   0  0  0  0  0  0  0  0  0  0  0  0
    5.5727    3.5077   -0.8797 N   0  0  0  0  0  0  0  0  0  0  0  0
    5.8313    1.1674   -0.4025 N   0  0  0  0  0  0  0  0  0  0  0  0
    7.4561   -1.0961    0.0487 N   0  0  0  0  0  0  0  0  0  0  0  0
    7.8754    0.0465   -0.6429 N   0  0  0  0  0  0  0  0  0  0  0  0
    2.5288   -1.2421   -4.9390 Cl  0  0  0  0  0  0  0  0  0  0  0  0
    5.5152   -0.0635   -5.2238 Cl  0  0  0  0  0  0  0  0  0  0  0  0
   10.6124    3.8040   -2.4099 H   0  0  0  0  0  0  0  0  0  0  0  0
    9.1619    5.8293   -2.4213 H   0  0  0  0  0  0  0  0  0  0  0  0
    9.7228    1.6399   -1.6724 H   0  0  0  0  0  0  0  0  0  0  0  0
    3.8817   -2.5740   -0.4682 H   0  0  0  0  0  0  0  0  0  0  0  0
    6.7784    5.6623   -1.6978 H   0  0  0  0  0  0  0  0  0  0  0  0
    2.2898   -2.3814   -2.3588 H   0  0  0  0  0  0  0  0  0  0  0  0
    6.8638   -0.5156   -2.7994 H   0  0  0  0  0  0  0  0  0  0  0  0
    4.0818    2.2591   -0.2225 H   0  0  0  0  0  0  0  0  0  0  0  0
    6.1462   -2.5517    0.3164 H   0  0  0  0  0  0  0  0  0  0  0  0
    8.8391    0.2318   -0.3909 H   0  0  0  0  0  0  0  0  0  0  0  0
  1  2  1  0  0  0  0
  1  3  2  0  0  0  0
  1 22  1  0  0  0  0
  2  5  2  0  0  0  0
  2 23  1  0  0  0  0
  3  9  1  0  0  0  0
  3 24  1  0  0  0  0
  4  6  2  0  0  0  0
  4 10  1  0  0  0  0
  4 25  1  0  0  0  0
  5 11  1  0  0  0  0
  5 26  1  0  0  0  0
  6 12  1  0  0  0  0
  6 27  1  0  0  0  0
  7 10  2  0  0  0  0
  7 13  1  0  0  0  0
  7 28  1  0  0  0  0
  8 16  1  0  0  0  0
  8 17  2  0  0  0  0
  8 29  1  0  0  0  0
  9 11  1  0  0  0  0
  9 14  2  0  0  0  0
 10 15  1  0  0  0  0
 11 16  2  0  0  0  0
 12 13  2  0  0  0  0
 12 20  1  0  0  0  0
 13 21  1  0  0  0  0
 14 17  1  0  0  0  0
 14 19  1  0  0  0  0
 15 18  2  0  0  0  0
 15 30  1  0  0  0  0
 18 19  1  0  0  0  0
 19 31  1  0  0  0  0
M  END
$$$$
