31
0 1 C15Cl2H10N4
C                     3.213085863714     0.590712831326    -0.749097528435
C                     2.599224371103     1.854843018139    -0.922761254400
C                     4.527605802099     0.497547807237    -0.334907657503
C                    10.465759468298    -2.259721259326     0.555589387190
C                     3.303955158310     3.013167010442    -0.668733951960
C                    11.689729798623    -2.280909853514     1.215567366643
C                     9.572550570320    -0.786435161148     2.249799493548
C                     6.540643627396     4.022317317626     0.455219985802
C                     5.279499270077     1.674939890686    -0.072380467284
C                     9.391810803113    -1.497982814475     1.051275496082
C                     4.652576784305     2.952943939772    -0.231523713466
C                    11.867937564004    -1.556203531497     2.399592215460
C                    10.796794374136    -0.814922638394     2.921105961142
C                     6.645063160651     1.733579552014     0.373564476085
C                     8.106798510969    -1.531860411412     0.323923182176
N                     5.299677781389     4.131198343944     0.033061690347
N                     7.252298825408     2.885611807202     0.638168607479
N                     7.230505296999    -0.600503678661     0.142032650332
N                     7.461501251449     0.642166271425     0.629024203024
Cl                   13.416188249955    -1.606648762007     3.195572093039
Cl                   10.951711510569     0.076666950860     4.411698958747
H                     2.645176760092    -0.314865647452    -0.944825165905
H                     1.565175217802     1.910020870948    -1.253712306817
H                     4.996615415746    -0.468776262373    -0.215739817801
H                    10.342762274753    -2.832112853763    -0.359934289333
H                     2.856321954427     3.995371698727    -0.785550445645
H                    12.519276889538    -2.859894514445     0.822481982474
H                     8.751150363650    -0.241011405761     2.701853655520
H                     7.072261546240     4.945308224352     0.681695332803
H                     7.851136098574    -2.472578421314    -0.161052882690
H                     8.404755888186     0.922111139030     0.902545743017
