44
0 1 C15H23N3O2S
C                    -6.083774153895     0.759004217954    -1.399825061613
C                    -6.540267165437    -0.432971174488    -0.832647825948
C                    -4.788335255622     0.799404940033    -1.917341619608
C                    -5.672054386930    -1.528615586716    -0.815076761257
C                    -3.986821835452    -0.350206038370    -1.854848632709
C                    -0.400215015187     1.710283017449    -0.000407254781
C                    -0.187794048682     0.690497105597     1.124925385410
C                    -0.114381580002    -1.775843840433     1.757662539166
C                    -1.637154981519     1.363671790999    -0.831842100727
C                     1.384561458273    -1.872876308541     2.099962924013
C                    -1.472346221242    -0.974668421623    -0.237618279152
C                     1.073125291904    -1.078251394501    -0.193930117737
C                    -0.208326822970    -0.759059723351     0.598533985831
C                     3.604885516598    -3.405025915298    -0.101232140162
C                    -2.549396219430    -0.342053052711    -2.348838643973
N                    -4.427421549233    -1.499820562259    -1.309640887460
N                    -1.541399672026    -0.008396142587    -1.335301272500
N                     2.041634254840    -1.344313557280     0.882908706994
O                     4.331263525299    -1.746176065170     1.822617983421
O                     4.038681450811    -0.842829089646    -0.557910601857
S                     3.617105546627    -1.711919259843     0.543574476831
H                    -6.724126585762     1.636670911374    -1.440905559445
H                    -7.540984647470    -0.518415577158    -0.418811048510
H                    -4.398800295988     1.706809498238    -2.370904058340
H                    -5.993554561911    -2.477142294292    -0.386432880491
H                    -0.514484721835     2.714772490515     0.422654573718
H                     0.475303462179     1.738412606855    -0.657252288185
H                     0.752801737159     0.891152234873     1.648603031958
H                    -0.995668374720     0.796546255948     1.861296619979
H                    -0.483900300515    -2.750051676796     1.417457812492
H                    -0.713608052423    -1.478679937985     2.622529790553
H                    -2.545095257565     1.511249165436    -0.216260342964
H                    -1.714429189688     2.041706212357    -1.689327356485
H                     1.666654478430    -1.257823304646     2.957639255078
H                     1.686124098659    -2.903447862674     2.318341325222
H                    -1.476291623647    -1.983089543778    -0.663823076318
H                    -2.353655056191    -0.912206375716     0.426249888356
H                     0.909397571875    -1.959564081860    -0.833278927981
H                     1.426744142274    -0.263385690283    -0.821710045218
H                     4.639916764592    -3.669983330690    -0.324367791577
H                     3.201857876910    -4.072924777994     0.661855103314
H                     3.003970889498    -3.432233725630    -1.011551808618
H                    -2.316760291886    -1.337198732641    -2.738964191833
H                    -2.442776367333     0.376384091016    -3.168966793296
