
  -OEChem-05262117483D

 44 46  0     1  0  0  0  0  0999 V2000
   -6.6960   -2.4688   -0.6932 C   0  0  0  0  0  0  0  0  0  0  0  0
   -7.4974   -1.3525   -0.4433 C   0  0  0  0  0  0  0  0  0  0  0  0
   -5.4376   -2.2733   -1.2640 C   0  0  0  0  0  0  0  0  0  0  0  0
   -6.9953   -0.0926   -0.7829 C   0  0  0  0  0  0  0  0  0  0  0  0
   -5.0157   -0.9707   -1.5700 C   0  0  0  0  0  0  0  0  0  0  0  0
   -1.5586    1.2006    0.3963 C   0  0  0  0  0  0  0  0  0  0  0  0
   -1.1461    0.0500    1.3224 C   0  0  0  0  0  0  0  0  0  0  0  0
   -0.7518   -2.4574    1.5303 C   0  0  0  0  0  0  0  0  0  0  0  0
   -2.8132    0.8400   -0.4004 C   0  0  0  0  0  0  0  0  0  0  0  0
    0.7596   -2.3865    1.7991 C   0  0  0  0  0  0  0  0  0  0  0  0
   -2.3231   -1.5220   -0.2340 C   0  0  0  0  0  0  0  0  0  0  0  0
    0.2110   -1.3281   -0.3358 C   0  0  0  0  0  0  0  0  0  0  0  0
   -1.0361   -1.2894    0.5646 C   0  0  1  0  0  0  0  0  0  0  0  0
    3.9488   -1.3266    1.0460 C   0  0  0  0  0  0  0  0  0  0  0  0
   -3.6311   -0.7009   -2.1362 C   0  0  0  0  0  0  0  0  0  0  0  0
   -5.7896    0.1049   -1.3319 N   0  0  0  0  0  0  0  0  0  0  0  0
   -2.5939   -0.4080   -1.1396 N   0  0  1  0  0  0  0  0  0  0  0  0
    1.2996   -1.6400    0.6298 N   0  0  2  0  0  0  0  0  0  0  0  0
    2.8491   -1.5778   -1.3644 O   0  0  0  0  0  0  0  0  0  0  0  0
    2.9435   -3.6054    0.1756 O   0  0  0  0  0  0  0  0  0  0  0  0
    2.7596   -2.1589   -0.0210 S   0  0  0  0  0  0  0  0  0  0  0  0
   -7.0452   -3.4699   -0.4521 H   0  0  0  0  0  0  0  0  0  0  0  0
   -8.4860   -1.4498   -0.0037 H   0  0  0  0  0  0  0  0  0  0  0  0
   -4.7875   -3.1173   -1.4785 H   0  0  0  0  0  0  0  0  0  0  0  0
   -7.5928    0.8017   -0.6094 H   0  0  0  0  0  0  0  0  0  0  0  0
   -1.7486    2.1046    0.9863 H   0  0  0  0  0  0  0  0  0  0  0  0
   -0.7475    1.4372   -0.3007 H   0  0  0  0  0  0  0  0  0  0  0  0
   -0.1997    0.2819    1.8230 H   0  0  0  0  0  0  0  0  0  0  0  0
   -1.9046   -0.0636    2.1087 H   0  0  0  0  0  0  0  0  0  0  0  0
   -0.9947   -3.4066    1.0390 H   0  0  0  0  0  0  0  0  0  0  0  0
   -1.3391   -2.3959    2.4509 H   0  0  0  0  0  0  0  0  0  0  0  0
   -3.6764    0.7619    0.2843 H   0  0  0  0  0  0  0  0  0  0  0  0
   -3.0534    1.6284   -1.1195 H   0  0  0  0  0  0  0  0  0  0  0  0
    0.9838   -1.8283    2.7145 H   0  0  0  0  0  0  0  0  0  0  0  0
    1.2105   -3.3787    1.8761 H   0  0  0  0  0  0  0  0  0  0  0  0
   -2.2215   -2.4376   -0.8288 H   0  0  0  0  0  0  0  0  0  0  0  0
   -3.1536   -1.6910    0.4788 H   0  0  0  0  0  0  0  0  0  0  0  0
    0.1048   -2.1098   -1.0974 H   0  0  0  0  0  0  0  0  0  0  0  0
    0.4224   -0.3905   -0.8451 H   0  0  0  0  0  0  0  0  0  0  0  0
    4.9417   -1.6429    0.7213 H   0  0  0  0  0  0  0  0  0  0  0  0
    3.8205   -0.2509    0.9275 H   0  0  0  0  0  0  0  0  0  0  0  0
    3.7727   -1.6359    2.0775 H   0  0  0  0  0  0  0  0  0  0  0  0
   -3.2955   -1.5661   -2.7188 H   0  0  0  0  0  0  0  0  0  0  0  0
   -3.6965    0.1565   -2.8120 H   0  0  0  0  0  0  0  0  0  0  0  0
  1  2  1  0  0  0  0
  1  3  2  0  0  0  0
  1 22  1  0  0  0  0
  2  4  2  0  0  0  0
  2 23  1  0  0  0  0
  3  5  1  0  0  0  0
  3 24  1  0  0  0  0
  4 16  1  0  0  0  0
  4 25  1  0  0  0  0
  5 15  1  0  0  0  0
  5 16  2  0  0  0  0
  6  7  1  0  0  0  0
  6  9  1  0  0  0  0
  6 26  1  0  0  0  0
  6 27  1  0  0  0  0
  7 13  1  0  0  0  0
  7 28  1  0  0  0  0
  7 29  1  0  0  0  0
  8 10  1  0  0  0  0
  8 13  1  0  0  0  0
  8 30  1  0  0  0  0
  8 31  1  0  0  0  0
  9 17  1  0  0  0  0
  9 32  1  0  0  0  0
  9 33  1  0  0  0  0
 10 18  1  0  0  0  0
 10 34  1  0  0  0  0
 10 35  1  0  0  0  0
 11 13  1  0  0  0  0
 11 17  1  0  0  0  0
 11 36  1  0  0  0  0
 11 37  1  0  0  0  0
 12 13  1  0  0  0  0
 12 18  1  0  0  0  0
 12 38  1  0  0  0  0
 12 39  1  0  0  0  0
 14 21  1  0  0  0  0
 14 40  1  0  0  0  0
 14 41  1  0  0  0  0
 14 42  1  0  0  0  0
 15 17  1  0  0  0  0
 15 43  1  0  0  0  0
 15 44  1  0  0  0  0
 18 21  1  0  0  0  0
 19 21  2  0  0  0  0
 20 21  2  0  0  0  0
M  END
$$$$
