
  -OEChem-05262117483D

 31 33  0     0  0  0  0  0  0999 V2000
    9.2044    3.8236   -1.4645 C   0  0  0  0  0  0  0  0  0  0  0  0
    8.3736    4.9699   -1.4352 C   0  0  0  0  0  0  0  0  0  0  0  0
    8.6860    2.5804   -1.1531 C   0  0  0  0  0  0  0  0  0  0  0  0
    5.5625   -0.7507   -2.6527 C   0  0  0  0  0  0  0  0  0  0  0  0
    7.0358    4.8585   -1.1105 C   0  0  0  0  0  0  0  0  0  0  0  0
    4.7262   -0.5749   -3.7482 C   0  0  0  0  0  0  0  0  0  0  0  0
    3.8079   -1.9663   -1.5218 C   0  0  0  0  0  0  0  0  0  0  0  0
    4.6848    2.3084   -0.2311 C   0  0  0  0  0  0  0  0  0  0  0  0
    7.3208    2.4455   -0.7968 C   0  0  0  0  0  0  0  0  0  0  0  0
    5.1080   -1.4437   -1.5158 C   0  0  0  0  0  0  0  0  0  0  0  0
    6.4779    3.5942   -0.7914 C   0  0  0  0  0  0  0  0  0  0  0  0
    3.4158   -1.0688   -3.7334 C   0  0  0  0  0  0  0  0  0  0  0  0
    2.9565   -1.7701   -2.6099 C   0  0  0  0  0  0  0  0  0  0  0  0
    6.6750    1.2069   -0.4426 C   0  0  0  0  0  0  0  0  0  0  0  0
    5.9443   -1.7274   -0.3353 C   0  0  0  0  0  0  0  0  0  0  0  0
    5.1392    3.5117   -0.5000 N   0  0  0  0  0  0  0  0  0  0  0  0
    5.3826    1.1426   -0.1841 N   0  0  0  0  0  0  0  0  0  0  0  0
    6.9865   -1.1538    0.1573 N   0  0  0  0  0  0  0  0  0  0  0  0
    7.4404    0.0430   -0.4092 N   0  0  0  0  0  0  0  0  0  0  0  0
    2.3970   -0.7994   -5.1218 Cl  0  0  0  0  0  0  0  0  0  0  0  0
    1.3366   -2.4186   -2.5393 Cl  0  0  0  0  0  0  0  0  0  0  0  0
   10.2504    3.9219   -1.7413 H   0  0  0  0  0  0  0  0  0  0  0  0
    8.7934    5.9418   -1.6806 H   0  0  0  0  0  0  0  0  0  0  0  0
    9.3328    1.7092   -1.2105 H   0  0  0  0  0  0  0  0  0  0  0  0
    6.5716   -0.3586   -2.6861 H   0  0  0  0  0  0  0  0  0  0  0  0
    6.3769    5.7215   -1.0948 H   0  0  0  0  0  0  0  0  0  0  0  0
    5.0764   -0.0440   -4.6277 H   0  0  0  0  0  0  0  0  0  0  0  0
    3.4397   -2.5198   -0.6630 H   0  0  0  0  0  0  0  0  0  0  0  0
    3.6223    2.2177   -0.0107 H   0  0  0  0  0  0  0  0  0  0  0  0
    5.6637   -2.6214    0.2232 H   0  0  0  0  0  0  0  0  0  0  0  0
    8.3875    0.2057   -0.0882 H   0  0  0  0  0  0  0  0  0  0  0  0
  1  2  1  0  0  0  0
  1  3  2  0  0  0  0
  1 22  1  0  0  0  0
  2  5  2  0  0  0  0
  2 23  1  0  0  0  0
  3  9  1  0  0  0  0
  3 24  1  0  0  0  0
  4  6  2  0  0  0  0
  4 10  1  0  0  0  0
  4 25  1  0  0  0  0
  5 11  1  0  0  0  0
  5 26  1  0  0  0  0
  6 12  1  0  0  0  0
  6 27  1  0  0  0  0
  7 10  2  0  0  0  0
  7 13  1  0  0  0  0
  7 28  1  0  0  0  0
  8 16  1  0  0  0  0
  8 17  2  0  0  0  0
  8 29  1  0  0  0  0
  9 11  1  0  0  0  0
  9 14  2  0  0  0  0
 10 15  1  0  0  0  0
 11 16  2  0  0  0  0
 12 13  2  0  0  0  0
 12 20  1  0  0  0  0
 13 21  1  0  0  0  0
 14 17  1  0  0  0  0
 14 19  1  0  0  0  0
 15 18  2  0  0  0  0
 15 30  1  0  0  0  0
 18 19  1  0  0  0  0
 19 31  1  0  0  0  0
M  END
$$$$
