44
0 1 C15H23N3O2S
C                    -1.109467261819    -2.704530011597    -6.204910485195
C                     0.218410659852    -3.117632142897    -6.123452183949
C                    -1.600715537161    -1.838062221402    -5.225264289347
C                     0.996150153528    -2.640227503227    -5.063151136613
C                    -0.745184823890    -1.414357278546    -4.203044373997
C                    -0.944696147209    -1.059815728332     0.628783930112
C                    -1.920397194657    -2.230864643933     0.793041086648
C                    -3.062539043110    -4.203008612201    -0.347537963916
C                    -1.237794762155    -0.282471027314    -0.656455532518
C                    -2.653885011398    -5.265814556905    -1.373987127035
C                    -2.235785092391    -2.218673025428    -1.693656629330
C                    -0.707522514500    -3.943958793603    -0.690970941455
C                    -1.984013455437    -3.111349581715    -0.462765095015
C                    -0.377172125843    -7.314563234210    -2.836042396726
C                    -1.222902508923    -0.502348778064    -3.090533771705
N                     0.538759551601    -1.803136493747    -4.127425871360
N                    -1.212612277054    -1.187077783272    -1.800344269028
N                    -1.170626738022    -5.161214240840    -1.421092021654
O                     0.916040322817    -4.996696009435    -2.870940326702
O                    -1.349991200117    -5.168746946139    -4.019725587569
S                    -0.453788942454    -5.515633471742    -2.904275120116
H                    -1.756875123476    -3.063555047479    -7.000734768799
H                     0.643321840992    -3.807252994535    -6.847003968295
H                    -2.635345721748    -1.504969403601    -5.242038280865
H                     2.032462163833    -2.954897720244    -4.956040435611
H                    -1.011907712043    -0.388070588706     1.492302007158
H                     0.084605958422    -1.432764898323     0.583108602435
H                    -1.649245447800    -2.840384327491     1.663826089740
H                    -2.927050229916    -1.835159795528     0.986803026575
H                    -4.071696547105    -3.823069148843    -0.534190127554
H                    -3.045738179973    -4.625424712209     0.663478333241
H                    -2.216182542846     0.234287256781    -0.564045083380
H                    -0.476375538165     0.489381560397    -0.806985842793
H                    -2.953746759810    -6.274616210393    -1.072472901071
H                    -3.083679042956    -5.057365086533    -2.358083988980
H                    -2.215430216898    -2.823361897856    -2.605081018715
H                    -3.251825784285    -1.778297402321    -1.617011120730
H                     0.045680926372    -3.403027773901    -1.263074515320
H                    -0.265502811884    -4.259732450939     0.261021125419
H                     0.039646215920    -7.648153282793    -3.788159206544
H                     0.268074073367    -7.597236349009    -2.004537429508
H                    -1.386084721333    -7.709114264624    -2.707678145033
H                    -0.529851059638     0.341741039244    -3.022684834087
H                    -2.220488262014    -0.093713214637    -3.339332808595
