
  -OEChem-05262117483D

 44 46  0     1  0  0  0  0  0999 V2000
   -6.9739   -0.7016    0.2136 C   0  0  0  0  0  0  0  0  0  0  0  0
   -7.2846    0.6601    0.2218 C   0  0  0  0  0  0  0  0  0  0  0  0
   -5.7418   -1.1022   -0.3052 C   0  0  0  0  0  0  0  0  0  0  0  0
   -6.3419    1.5535   -0.2960 C   0  0  0  0  0  0  0  0  0  0  0  0
   -4.8562   -0.1337   -0.8012 C   0  0  0  0  0  0  0  0  0  0  0  0
   -0.8313    0.8448    1.0231 C   0  0  0  0  0  0  0  0  0  0  0  0
   -0.8816   -0.2184    2.1269 C   0  0  0  0  0  0  0  0  0  0  0  0
   -1.4561   -2.6304    2.7142 C   0  0  0  0  0  0  0  0  0  0  0  0
   -2.1291    0.8587    0.2145 C   0  0  0  0  0  0  0  0  0  0  0  0
   -0.0327   -3.1230    3.0370 C   0  0  0  0  0  0  0  0  0  0  0  0
   -2.5704   -1.4583    0.7506 C   0  0  0  0  0  0  0  0  0  0  0  0
   -0.1410   -2.2281    0.7605 C   0  0  0  0  0  0  0  0  0  0  0  0
   -1.2878   -1.6003    1.5754 C   0  0  1  0  0  0  0  0  0  0  0  0
    1.7169   -5.1299    0.7801 C   0  0  0  0  0  0  0  0  0  0  0  0
   -3.4783   -0.5125   -1.3198 C   0  0  0  0  0  0  0  0  0  0  0  0
   -5.1576    1.1782   -0.7965 N   0  0  0  0  0  0  0  0  0  0  0  0
   -2.4022   -0.4806   -0.3216 N   0  0  1  0  0  0  0  0  0  0  0  0
    0.7291   -2.7644    1.8198 N   0  0  2  0  0  0  0  0  0  0  0  0
    2.8416   -3.7550    2.7355 O   0  0  0  0  0  0  0  0  0  0  0  0
    2.7866   -2.7523    0.3769 O   0  0  0  0  0  0  0  0  0  0  0  0
    2.1596   -3.5107    1.4619 S   0  0  0  0  0  0  0  0  0  0  0  0
   -7.6775   -1.4352    0.5993 H   0  0  0  0  0  0  0  0  0  0  0  0
   -8.2309    1.0245    0.6114 H   0  0  0  0  0  0  0  0  0  0  0  0
   -5.4667   -2.1533   -0.3345 H   0  0  0  0  0  0  0  0  0  0  0  0
   -6.5500    2.6226   -0.3132 H   0  0  0  0  0  0  0  0  0  0  0  0
   -0.6681    1.8336    1.4663 H   0  0  0  0  0  0  0  0  0  0  0  0
    0.0112    0.6543    0.3499 H   0  0  0  0  0  0  0  0  0  0  0  0
    0.0837   -0.2857    2.6397 H   0  0  0  0  0  0  0  0  0  0  0  0
   -1.6253    0.0807    2.8777 H   0  0  0  0  0  0  0  0  0  0  0  0
   -2.0689   -3.4681    2.3606 H   0  0  0  0  0  0  0  0  0  0  0  0
   -1.9512   -2.2051    3.5914 H   0  0  0  0  0  0  0  0  0  0  0  0
   -2.9576    1.2173    0.8508 H   0  0  0  0  0  0  0  0  0  0  0  0
   -2.0536    1.5556   -0.6251 H   0  0  0  0  0  0  0  0  0  0  0  0
    0.4068   -2.6176    3.9001 H   0  0  0  0  0  0  0  0  0  0  0  0
   -0.0100   -4.2001    3.2369 H   0  0  0  0  0  0  0  0  0  0  0  0
   -2.8251   -2.4264    0.3014 H   0  0  0  0  0  0  0  0  0  0  0  0
   -3.4006   -1.1923    1.4334 H   0  0  0  0  0  0  0  0  0  0  0  0
   -0.5342   -3.0209    0.1050 H   0  0  0  0  0  0  0  0  0  0  0  0
    0.4101   -1.5202    0.1454 H   0  0  0  0  0  0  0  0  0  0  0  0
    2.6502   -5.6439    0.5432 H   0  0  0  0  0  0  0  0  0  0  0  0
    1.1589   -5.6910    1.5316 H   0  0  0  0  0  0  0  0  0  0  0  0
    1.1274   -4.9824   -0.1262 H   0  0  0  0  0  0  0  0  0  0  0  0
   -3.5082   -1.5231   -1.7427 H   0  0  0  0  0  0  0  0  0  0  0  0
   -3.2107    0.1815   -2.1215 H   0  0  0  0  0  0  0  0  0  0  0  0
  1  2  1  0  0  0  0
  1  3  2  0  0  0  0
  1 22  1  0  0  0  0
  2  4  2  0  0  0  0
  2 23  1  0  0  0  0
  3  5  1  0  0  0  0
  3 24  1  0  0  0  0
  4 16  1  0  0  0  0
  4 25  1  0  0  0  0
  5 15  1  0  0  0  0
  5 16  2  0  0  0  0
  6  7  1  0  0  0  0
  6  9  1  0  0  0  0
  6 26  1  0  0  0  0
  6 27  1  0  0  0  0
  7 13  1  0  0  0  0
  7 28  1  0  0  0  0
  7 29  1  0  0  0  0
  8 10  1  0  0  0  0
  8 13  1  0  0  0  0
  8 30  1  0  0  0  0
  8 31  1  0  0  0  0
  9 17  1  0  0  0  0
  9 32  1  0  0  0  0
  9 33  1  0  0  0  0
 10 18  1  0  0  0  0
 10 34  1  0  0  0  0
 10 35  1  0  0  0  0
 11 13  1  0  0  0  0
 11 17  1  0  0  0  0
 11 36  1  0  0  0  0
 11 37  1  0  0  0  0
 12 13  1  0  0  0  0
 12 18  1  0  0  0  0
 12 38  1  0  0  0  0
 12 39  1  0  0  0  0
 14 21  1  0  0  0  0
 14 40  1  0  0  0  0
 14 41  1  0  0  0  0
 14 42  1  0  0  0  0
 15 17  1  0  0  0  0
 15 43  1  0  0  0  0
 15 44  1  0  0  0  0
 18 21  1  0  0  0  0
 19 21  2  0  0  0  0
 20 21  2  0  0  0  0
M  END
$$$$
