
  -OEChem-05262117483D

 31 33  0     0  0  0  0  0  0999 V2000
    8.7252    3.9057   -0.8648 C   0  0  0  0  0  0  0  0  0  0  0  0
    8.6956    4.9134    0.1297 C   0  0  0  0  0  0  0  0  0  0  0  0
    8.0126    2.7348   -0.6899 C   0  0  0  0  0  0  0  0  0  0  0  0
    7.3016   -2.9553   -2.4729 C   0  0  0  0  0  0  0  0  0  0  0  0
    7.9518    4.7406    1.2795 C   0  0  0  0  0  0  0  0  0  0  0  0
    7.9408   -2.9935   -3.7084 C   0  0  0  0  0  0  0  0  0  0  0  0
    6.5163   -0.7211   -2.9460 C   0  0  0  0  0  0  0  0  0  0  0  0
    5.7960    2.2921    2.7495 C   0  0  0  0  0  0  0  0  0  0  0  0
    7.2463    2.5299    0.4869 C   0  0  0  0  0  0  0  0  0  0  0  0
    6.5950   -1.8112   -2.0625 C   0  0  0  0  0  0  0  0  0  0  0  0
    7.2084    3.5492    1.4828 C   0  0  0  0  0  0  0  0  0  0  0  0
    7.8798   -1.8943   -4.5728 C   0  0  0  0  0  0  0  0  0  0  0  0
    7.1535   -0.7573   -4.1882 C   0  0  0  0  0  0  0  0  0  0  0  0
    6.4660    1.3540    0.7847 C   0  0  0  0  0  0  0  0  0  0  0  0
    5.9305   -1.8107   -0.7390 C   0  0  0  0  0  0  0  0  0  0  0  0
    6.4697    3.4167    2.6299 N   0  0  0  0  0  0  0  0  0  0  0  0
    5.7499    1.2445    1.8878 N   0  0  0  0  0  0  0  0  0  0  0  0
    5.8444   -0.8611    0.1298 N   0  0  0  0  0  0  0  0  0  0  0  0
    6.4524    0.3235   -0.1380 N   0  0  0  0  0  0  0  0  0  0  0  0
    8.7031   -1.9755   -6.1055 Cl  0  0  0  0  0  0  0  0  0  0  0  0
    7.0157    0.6313   -5.2362 Cl  0  0  0  0  0  0  0  0  0  0  0  0
    9.3077    4.0553   -1.7695 H   0  0  0  0  0  0  0  0  0  0  0  0
    9.2610    5.8296   -0.0193 H   0  0  0  0  0  0  0  0  0  0  0  0
    8.0490    1.9874   -1.4786 H   0  0  0  0  0  0  0  0  0  0  0  0
    7.3603   -3.8172   -1.8137 H   0  0  0  0  0  0  0  0  0  0  0  0
    7.9088    5.5009    2.0535 H   0  0  0  0  0  0  0  0  0  0  0  0
    8.4953   -3.8744   -4.0159 H   0  0  0  0  0  0  0  0  0  0  0  0
    5.9173    0.1491   -2.6981 H   0  0  0  0  0  0  0  0  0  0  0  0
    5.1967    2.1715    3.6509 H   0  0  0  0  0  0  0  0  0  0  0  0
    5.4687   -2.7443   -0.4216 H   0  0  0  0  0  0  0  0  0  0  0  0
    7.1250    0.3684   -0.8970 H   0  0  0  0  0  0  0  0  0  0  0  0
  1  2  1  0  0  0  0
  1  3  2  0  0  0  0
  1 22  1  0  0  0  0
  2  5  2  0  0  0  0
  2 23  1  0  0  0  0
  3  9  1  0  0  0  0
  3 24  1  0  0  0  0
  4  6  2  0  0  0  0
  4 10  1  0  0  0  0
  4 25  1  0  0  0  0
  5 11  1  0  0  0  0
  5 26  1  0  0  0  0
  6 12  1  0  0  0  0
  6 27  1  0  0  0  0
  7 10  2  0  0  0  0
  7 13  1  0  0  0  0
  7 28  1  0  0  0  0
  8 16  1  0  0  0  0
  8 17  2  0  0  0  0
  8 29  1  0  0  0  0
  9 11  1  0  0  0  0
  9 14  2  0  0  0  0
 10 15  1  0  0  0  0
 11 16  2  0  0  0  0
 12 13  2  0  0  0  0
 12 20  1  0  0  0  0
 13 21  1  0  0  0  0
 14 17  1  0  0  0  0
 14 19  1  0  0  0  0
 15 18  2  0  0  0  0
 15 30  1  0  0  0  0
 18 19  1  0  0  0  0
 19 31  1  0  0  0  0
M  END
$$$$
