31
0 1 C13H10N4O3S
C                     0.973781869875     4.500603868161     1.590597134424
C                     1.065381847072     5.834450003875     1.936164818123
C                     1.085496571363    -3.120851418917    -0.045880865397
C                     2.111440386121    -2.504876773534     0.620783522118
C                     1.882497385243    -1.104143474491     0.824562749601
C                    -0.200024450585     4.091945158522     0.932562447150
C                     0.675811226185    -0.680508234858     0.294061976767
C                    -0.011562913644     6.677694762220     1.607533149421
C                    -0.357514965210     2.678535387647     0.538436229617
C                     0.123075665234     0.645333772747     0.317959820688
C                     4.300056653993    -2.204343229361     1.352210595798
C                     3.779637818295    -1.041155717484     2.180508886705
C                    -0.003690169653     8.144399314092     1.947724561996
N                    -1.200783361901     4.932692427979     0.639197539647
N                    -1.104781905629     6.217271345155     0.975209711700
N                     0.628409542527     1.750196875327     0.810420081179
N                    -1.414768597408     2.200162771731    -0.084216722125
O                    -1.099698174251     0.834487542272    -0.236095058426
O                     3.242540994408    -3.136676611572     1.065782328385
O                     2.773183579039    -0.300931861151     1.460384202145
S                    -0.184918457385    -2.015791023198    -0.445768520979
H                     1.755141496600     3.778937700970     1.803756747647
H                     1.939862459758     6.230141776310     2.446815042513
H                     1.019835516923    -4.164445050519    -0.323401286444
H                     4.732102323999    -1.841117986955     0.411302087392
H                     5.056704038362    -2.764035787850     1.905304880689
H                     3.351106408854    -1.403845755351     3.122291357733
H                     4.576738673126    -0.327221289725     2.395867554037
H                     0.869283261669     8.643537357056     1.513197315461
H                    -0.909749760476     8.616403478073     1.564695090027
H                     0.039729841795     8.292835908274     3.032566631110
