
  -OEChem-05262117483D

 53 57  0     0  0  0  0  0  0999 V2000
   -0.8306    1.5759    1.2217 C   0  0  0  0  0  0  0  0  0  0  0  0
   -0.8812    0.3977    0.4372 C   0  0  0  0  0  0  0  0  0  0  0  0
   -4.5786    3.9275    5.1749 C   0  0  0  0  0  0  0  0  0  0  0  0
   -1.7130    1.7663    2.2759 C   0  0  0  0  0  0  0  0  0  0  0  0
   -4.3306    2.9693    4.1952 C   0  0  0  0  0  0  0  0  0  0  0  0
   -5.2817   -1.2244   -0.4062 C   0  0  0  0  0  0  0  0  0  0  0  0
   -6.6444   -2.6685    0.9699 C   0  0  0  0  0  0  0  0  0  0  0  0
   -1.8035   -0.6103    0.6943 C   0  0  0  0  0  0  0  0  0  0  0  0
   -4.4902    3.6135    6.5371 C   0  0  0  0  0  0  0  0  0  0  0  0
   -6.3887   -0.9141   -1.1980 C   0  0  0  0  0  0  0  0  0  0  0  0
   -7.7641   -2.3739    0.1851 C   0  0  0  0  0  0  0  0  0  0  0  0
   -3.8853    1.3404    5.9341 C   0  0  0  0  0  0  0  0  0  0  0  0
   -2.6687    0.7665    2.5468 C   0  0  0  0  0  0  0  0  0  0  0  0
   -3.9856    1.6554    4.5739 C   0  0  0  0  0  0  0  0  0  0  0  0
   -3.7025    0.6436    3.5338 C   0  0  0  0  0  0  0  0  0  0  0  0
   -5.3955   -2.1043    0.6816 C   0  0  0  0  0  0  0  0  0  0  0  0
   -2.6940   -0.4223    1.7659 C   0  0  0  0  0  0  0  0  0  0  0  0
   -4.1406    2.3097    6.9181 C   0  0  0  0  0  0  0  0  0  0  0  0
   -7.6123   -1.5008   -0.8855 C   0  0  0  0  0  0  0  0  0  0  0  0
   -4.3132   -0.5918    3.3263 C   0  0  0  0  0  0  0  0  0  0  0  0
   -5.4371   -1.2252    4.0550 C   0  0  0  0  0  0  0  0  0  0  0  0
   -3.7222    2.9105   11.7928 C   0  0  0  0  0  0  0  0  0  0  0  0
   -2.7372    1.9506   11.1608 C   0  0  0  0  0  0  0  0  0  0  0  0
   -4.1209    2.1048   10.5738 C   0  0  0  0  0  0  0  0  0  0  0  0
   -4.1894   -2.4251    1.5438 C   0  0  0  0  0  0  0  0  0  0  0  0
   -4.2947    2.8160    9.2626 C   0  0  0  0  0  0  0  0  0  0  0  0
   -3.6819   -1.2489    2.2640 N   0  0  0  0  0  0  0  0  0  0  0  0
   -5.6981   -2.4140    3.9950 O   0  0  0  0  0  0  0  0  0  0  0  0
   -6.2126   -0.4138    4.8153 O   0  0  0  0  0  0  0  0  0  0  0  0
   -4.0118    1.8848    8.2070 O   0  0  0  0  0  0  0  0  0  0  0  0
   -8.6943   -1.2055   -1.6537 F   0  0  0  0  0  0  0  0  0  0  0  0
   -0.0887    2.3354    0.9913 H   0  0  0  0  0  0  0  0  0  0  0  0
   -0.1788    0.2753   -0.3829 H   0  0  0  0  0  0  0  0  0  0  0  0
   -4.8537    4.9375    4.8822 H   0  0  0  0  0  0  0  0  0  0  0  0
   -1.6746    2.6662    2.8834 H   0  0  0  0  0  0  0  0  0  0  0  0
   -4.4175    3.2186    3.1420 H   0  0  0  0  0  0  0  0  0  0  0  0
   -4.3232   -0.7669   -0.6358 H   0  0  0  0  0  0  0  0  0  0  0  0
   -6.7488   -3.3249    1.8281 H   0  0  0  0  0  0  0  0  0  0  0  0
   -1.8181   -1.5091    0.0855 H   0  0  0  0  0  0  0  0  0  0  0  0
   -4.6914    4.3803    7.2759 H   0  0  0  0  0  0  0  0  0  0  0  0
   -6.3154   -0.2357   -2.0425 H   0  0  0  0  0  0  0  0  0  0  0  0
   -8.7385   -2.8018    0.4000 H   0  0  0  0  0  0  0  0  0  0  0  0
   -3.6021    0.3419    6.2533 H   0  0  0  0  0  0  0  0  0  0  0  0
   -4.1680    2.6419   12.7455 H   0  0  0  0  0  0  0  0  0  0  0  0
   -3.5472    3.9756   11.6659 H   0  0  0  0  0  0  0  0  0  0  0  0
   -1.9056    2.3691   10.6008 H   0  0  0  0  0  0  0  0  0  0  0  0
   -2.5077    1.0283   11.6853 H   0  0  0  0  0  0  0  0  0  0  0  0
   -4.8145    1.2836   10.7349 H   0  0  0  0  0  0  0  0  0  0  0  0
   -4.4348   -3.1956    2.2703 H   0  0  0  0  0  0  0  0  0  0  0  0
   -3.3641   -2.7925    0.9306 H   0  0  0  0  0  0  0  0  0  0  0  0
   -3.6076    3.6707    9.1955 H   0  0  0  0  0  0  0  0  0  0  0  0
   -5.3220    3.1890    9.1538 H   0  0  0  0  0  0  0  0  0  0  0  0
   -5.8737    0.5016    4.8095 H   0  0  0  0  0  0  0  0  0  0  0  0
  1  2  1  0  0  0  0
  1  4  2  0  0  0  0
  1 32  1  0  0  0  0
  2  8  2  0  0  0  0
  2 33  1  0  0  0  0
  3  5  2  0  0  0  0
  3  9  1  0  0  0  0
  3 34  1  0  0  0  0
  4 13  1  0  0  0  0
  4 35  1  0  0  0  0
  5 14  1  0  0  0  0
  5 36  1  0  0  0  0
  6 10  2  0  0  0  0
  6 16  1  0  0  0  0
  6 37  1  0  0  0  0
  7 11  1  0  0  0  0
  7 16  2  0  0  0  0
  7 38  1  0  0  0  0
  8 17  1  0  0  0  0
  8 39  1  0  0  0  0
  9 18  2  0  0  0  0
  9 40  1  0  0  0  0
 10 19  1  0  0  0  0
 10 41  1  0  0  0  0
 11 19  2  0  0  0  0
 11 42  1  0  0  0  0
 12 14  2  0  0  0  0
 12 18  1  0  0  0  0
 12 43  1  0  0  0  0
 13 15  1  0  0  0  0
 13 17  2  0  0  0  0
 14 15  1  0  0  0  0
 15 20  2  0  0  0  0
 16 25  1  0  0  0  0
 17 27  1  0  0  0  0
 18 30  1  0  0  0  0
 19 31  1  0  0  0  0
 20 21  1  0  0  0  0
 20 27  1  0  0  0  0
 21 28  2  0  0  0  0
 21 29  1  0  0  0  0
 22 23  1  0  0  0  0
 22 24  1  0  0  0  0
 22 44  1  0  0  0  0
 22 45  1  0  0  0  0
 23 24  1  0  0  0  0
 23 46  1  0  0  0  0
 23 47  1  0  0  0  0
 24 26  1  0  0  0  0
 24 48  1  0  0  0  0
 25 27  1  0  0  0  0
 25 49  1  0  0  0  0
 25 50  1  0  0  0  0
 26 30  1  0  0  0  0
 26 51  1  0  0  0  0
 26 52  1  0  0  0  0
 29 53  1  0  0  0  0
M  END
$$$$
