
  -OEChem-05262117483D

 39 41  0     1  0  0  0  0  0999 V2000
    1.1696   -2.1243   -1.2226 C   0  0  0  0  0  0  0  0  0  0  0  0
    1.7673   -3.3663   -1.4776 C   0  0  0  0  0  0  0  0  0  0  0  0
    1.5938   -2.4161    1.1278 C   0  0  0  0  0  0  0  0  0  0  0  0
    1.0715   -1.6413    0.0807 C   0  0  0  0  0  0  0  0  0  0  0  0
    2.2779   -4.1401   -0.4321 C   0  0  0  0  0  0  0  0  0  0  0  0
    2.1990   -3.6448    0.8906 C   0  0  0  0  0  0  0  0  0  0  0  0
    0.4196    1.7061   -0.7566 C   0  0  0  0  0  0  0  0  0  0  0  0
    5.2317   -2.4025    1.0971 C   0  0  0  0  0  0  0  0  0  0  0  0
    6.2853   -3.1764    1.8567 C   0  0  0  0  0  0  0  0  0  0  0  0
    1.4098    0.6803    1.0906 C   0  0  0  0  0  0  0  0  0  0  0  0
    4.8307   -3.2692    2.2717 C   0  0  0  0  0  0  0  0  0  0  0  0
    0.4285   -0.3071    0.3987 C   0  0  2  0  0  0  0  0  0  0  0  0
   -0.8699   -0.4699    1.1960 C   0  0  0  0  0  0  0  0  0  0  0  0
    2.9121   -5.9213   -1.8973 C   0  0  0  0  0  0  0  0  0  0  0  0
    4.0897   -4.5609    2.0401 C   0  0  0  0  0  0  0  0  0  0  0  0
    1.0019    1.9347    0.4770 N   0  0  0  0  0  0  0  0  0  0  0  0
    0.1952    2.5101   -1.6340 O   0  0  0  0  0  0  0  0  0  0  0  0
    0.0948    0.3781   -0.8423 O   0  0  0  0  0  0  0  0  0  0  0  0
    2.8699   -5.3655   -0.5863 O   0  0  0  0  0  0  0  0  0  0  0  0
    2.6565   -4.3764    1.9616 O   0  0  0  0  0  0  0  0  0  0  0  0
    0.7804   -1.5353   -2.0452 H   0  0  0  0  0  0  0  0  0  0  0  0
    1.8200   -3.7211   -2.5007 H   0  0  0  0  0  0  0  0  0  0  0  0
    1.5533   -2.0779    2.1601 H   0  0  0  0  0  0  0  0  0  0  0  0
    5.1926   -1.3245    1.2235 H   0  0  0  0  0  0  0  0  0  0  0  0
    4.9638   -2.7460    0.1024 H   0  0  0  0  0  0  0  0  0  0  0  0
    6.7285   -4.0415    1.3701 H   0  0  0  0  0  0  0  0  0  0  0  0
    6.9655   -2.6299    2.5029 H   0  0  0  0  0  0  0  0  0  0  0  0
    1.2697    0.6910    2.1751 H   0  0  0  0  0  0  0  0  0  0  0  0
    2.4521    0.4228    0.8655 H   0  0  0  0  0  0  0  0  0  0  0  0
    4.5546   -2.7473    3.1855 H   0  0  0  0  0  0  0  0  0  0  0  0
   -1.2921    0.5102    1.4386 H   0  0  0  0  0  0  0  0  0  0  0  0
   -0.6850   -1.0158    2.1253 H   0  0  0  0  0  0  0  0  0  0  0  0
   -1.5953   -1.0324    0.6032 H   0  0  0  0  0  0  0  0  0  0  0  0
    3.3875   -6.8973   -1.7910 H   0  0  0  0  0  0  0  0  0  0  0  0
    3.5063   -5.2994   -2.5783 H   0  0  0  0  0  0  0  0  0  0  0  0
    1.9031   -6.0505   -2.3068 H   0  0  0  0  0  0  0  0  0  0  0  0
    4.2217   -5.2421    2.8849 H   0  0  0  0  0  0  0  0  0  0  0  0
    4.4503   -5.0585    1.1344 H   0  0  0  0  0  0  0  0  0  0  0  0
    1.5625    2.7732    0.5578 H   0  0  0  0  0  0  0  0  0  0  0  0
  1  2  1  0  0  0  0
  1  4  2  0  0  0  0
  1 21  1  0  0  0  0
  2  5  2  0  0  0  0
  2 22  1  0  0  0  0
  3  4  1  0  0  0  0
  3  6  2  0  0  0  0
  3 23  1  0  0  0  0
  4 12  1  0  0  0  0
  5  6  1  0  0  0  0
  5 19  1  0  0  0  0
  6 20  1  0  0  0  0
  7 16  1  0  0  0  0
  7 17  2  0  0  0  0
  7 18  1  0  0  0  0
  8  9  1  0  0  0  0
  8 11  1  0  0  0  0
  8 24  1  0  0  0  0
  8 25  1  0  0  0  0
  9 11  1  0  0  0  0
  9 26  1  0  0  0  0
  9 27  1  0  0  0  0
 10 12  1  0  0  0  0
 10 16  1  0  0  0  0
 10 28  1  0  0  0  0
 10 29  1  0  0  0  0
 11 15  1  0  0  0  0
 11 30  1  0  0  0  0
 12 13  1  0  0  0  0
 12 18  1  0  0  0  0
 13 31  1  0  0  0  0
 13 32  1  0  0  0  0
 13 33  1  0  0  0  0
 14 19  1  0  0  0  0
 14 34  1  0  0  0  0
 14 35  1  0  0  0  0
 14 36  1  0  0  0  0
 15 20  1  0  0  0  0
 15 37  1  0  0  0  0
 15 38  1  0  0  0  0
 16 39  1  0  0  0  0
M  END
$$$$
