39
0 1 C15H19NO4
C                     1.074749379097    -3.176792392890    -2.039855515606
C                     1.392166412137    -4.515905815681    -2.285604951857
C                     2.007295532881    -3.379391031308     0.181780420651
C                     1.375128223605    -2.606409470476    -0.799473124516
C                     2.021683713069    -5.294418394928    -1.316440512986
C                     2.343794727888    -4.715716859680    -0.067732185249
C                     0.321872948575    -0.096673728293     1.419046069097
C                     3.233048825273    -7.049303801509     3.645215408307
C                     4.013936362425    -5.987536753379     4.389826344804
C                    -0.524636251065    -0.911562546971    -0.597163337479
C                     4.062924852743    -6.045207110227     2.877890122137
C                     1.008719011882    -1.159025929998    -0.529808953008
C                     1.782702686181    -0.189418628011    -1.428186615849
C                     1.716804052341    -7.611276060712    -0.861709481635
C                     3.375653722549    -4.966715823821     2.090376921176
N                    -0.690779548642     0.043013841479     0.488783907656
O                     0.365418962408     0.343106141819     2.546744337799
O                     1.334617162785    -0.823547676584     0.850109509710
O                     2.368433054772    -6.588210059796    -1.630711074206
O                     2.981617719147    -5.525052826092     0.827070070602
H                     0.587480913263    -2.593353472749    -2.817030181403
H                     1.164611046200    -4.980198100251    -3.240952483798
H                     2.237721574059    -2.918863276372     1.132735448361
H                     3.586411183450    -8.074956912766     3.689961590763
H                     2.152270948265    -6.946154642816     3.599685048727
H                     3.457134640829    -5.176365801489     4.851224246995
H                     4.901969282853    -6.287937442322     4.937299434192
H                    -0.819636575445    -0.488996647478    -1.561528271344
H                    -1.082204835108    -1.840201684865    -0.426724629107
H                     4.983339021002    -6.412264278277     2.431035396141
H                     1.474211338072     0.841145491183    -1.226763586940
H                     1.602161307510    -0.412875839249    -2.483083642008
H                     2.853697748764    -0.284027977795    -1.233240805958
H                     2.039908592080    -8.560988961340    -1.292791937989
H                     0.626712952763    -7.521862977132    -0.952873644356
H                     2.007307402326    -7.563639469998     0.190897059177
H                     4.046499541381    -4.115001584220     1.918452336114
H                     2.490254204884    -4.603734611486     2.629058667851
H                    -1.604618187339     0.277878843355     0.854460002562
