53
0 1 C26FH22NO3
C                    -0.830593538849     1.575892601516     1.221726909999
C                    -0.881230320926     0.397702730504     0.437244587387
C                    -4.578565615112     3.927510568867     5.174866748287
C                    -1.713042343221     1.766312914360     2.275920326263
C                    -4.330550284379     2.969326472449     4.195176720690
C                    -5.281678374205    -1.224422115368    -0.406162289688
C                    -6.644401768514    -2.668527429486     0.969925512119
C                    -1.803520385354    -0.610327710700     0.694286136136
C                    -4.490173515458     3.613488906148     6.537145067520
C                    -6.388673018465    -0.914137237522    -1.197982426925
C                    -7.764096882793    -2.373893459780     0.185118211199
C                    -3.885303235791     1.340438434901     5.934125246474
C                    -2.668748747271     0.766492604662     2.546848596293
C                    -3.985605860307     1.655429698440     4.573871225867
C                    -3.702492094353     0.643631097446     3.533799295060
C                    -5.395506852894    -2.104276972430     0.681626656184
C                    -2.693961956401    -0.422318239267     1.765886625075
C                    -4.140631224064     2.309732395186     6.918139657318
C                    -7.612332912270    -1.500810277105    -0.885471512225
C                    -4.313225467011    -0.591818795821     3.326255977160
C                    -5.437112495606    -1.225151908951     4.054977648226
C                    -3.722225768719     2.910461386921    11.792822250685
C                    -2.737222251583     1.950584188017    11.160836449192
C                    -4.120896210880     2.104804228727    10.573837304154
C                    -4.189397878003    -2.425078644076     1.543821382738
C                    -4.294699798382     2.815969472143     9.262561169153
N                    -3.681852077012    -1.248852607903     2.263984332102
O                    -5.698107834219    -2.414013130551     3.995035464820
O                    -6.212648013826    -0.413761967656     4.815266861909
O                    -4.011759126293     1.884793908502     8.207010508596
F                    -8.694282900925    -1.205540157015    -1.653710253512
H                    -0.088673981770     2.335437231112     0.991283903400
H                    -0.178849133452     0.275260707355    -0.382895785930
H                    -4.853695446359     4.937452403448     4.882164518821
H                    -1.674594888311     2.666218391186     2.883389252334
H                    -4.417533073994     3.218649087855     3.142045537716
H                    -4.323207860621    -0.766925323451    -0.635774567444
H                    -6.748827651896    -3.324922942724     1.828119029239
H                    -1.818130502465    -1.509106579827     0.085486620428
H                    -4.691399399398     4.380299392852     7.275894424473
H                    -6.315405147457    -0.235678114410    -2.042477715687
H                    -8.738467875073    -2.801778219962     0.400026702185
H                    -3.602081406559     0.341918811036     6.253254696967
H                    -4.168047143917     2.641871503359    12.745549619877
H                    -3.547153949822     3.975619656621    11.665853476339
H                    -1.905638500461     2.369106311062    10.600828178288
H                    -2.507703786363     1.028268691332    11.685305803057
H                    -4.814543503120     1.283610988557    10.734940463971
H                    -4.434825632719    -3.195597049036     2.270258114234
H                    -3.364099000568    -2.792475702648     0.930599713000
H                    -3.607600486736     3.670659216991     9.195518422433
H                    -5.321978319776     3.188980714621     9.153842483820
H                    -5.873667289915     0.501606580568     4.809469360433
