65
0 1 C26H31N5O3
C                     5.219554086236    -7.235370134224    -3.686577502500
C                     6.225789463089    -1.533120895653    -7.738279183952
C                     6.249026068335    -6.534350921887    -4.319978540817
C                     5.610913738853    -0.717755399435    -8.686644820568
C                     5.176917463439    -0.276056192997    -5.957836751224
C                     4.434626212288    -6.558253803576    -2.750295643365
C                     5.608581141583    -4.610790120653    -3.039653404066
C                     6.008405057770    -1.323982198422    -6.368733711127
C                     6.457037538730    -5.189605069160    -4.000391637793
C                     4.747475715734     0.307399983614    -8.279165779226
C                     4.539478369079     0.524828876862    -6.901140802528
C                     3.688887726157     2.414347470004    -8.887899285369
C                     6.660131889192    -2.147481365331    -5.300319472259
C                     2.711003362331     1.491185332116    -5.582227179848
C                     3.876139347031     2.773419703202    -7.418093347576
C                    -1.871845143244     5.078061699377    -2.338520916056
C                    -1.159043244676     3.973070615289    -1.546187080042
C                    -0.960729798642     5.647741482864    -3.434676275340
C                     2.569724853025     0.665936964646   -11.209826982134
C                     3.286460051715    -0.624180972105   -10.892495935099
C                    -0.626594480570     2.873665933303    -2.475043730936
C                    -0.429820553919     4.539547140950    -4.355029429466
C                     3.944753633648     0.705057114918   -10.597182951656
C                     0.294126912102     3.441258610120    -3.561949638797
C                     7.538509738573    -4.369237657652    -4.673666882740
C                     1.806360167230     2.703235739392    -5.348493511223
N                     4.619069727834    -5.269850342778    -2.424091220568
N                     4.065795337480     1.120992048245    -9.217377690526
N                     3.690569493667     1.611147085804    -6.555871468940
N                     7.015329560937    -3.426484940209    -5.664160459975
N                     0.729042622336     2.354475709501    -4.442443011665
O                     3.252190498510     3.217792529871    -9.699618052092
O                     6.875589787833    -1.698106030694    -4.173455557265
O                     2.590694198512     0.470909730258    -4.912903814435
H                     5.029681672892    -8.281980583937    -3.908015574591
H                     6.912930627360    -2.303501545202    -8.076380023747
H                     6.886245998661    -7.029894856738    -5.050681752991
H                     5.797918768438    -0.876743707821    -9.742007639091
H                     5.023401180793    -0.105646483536    -4.900406876555
H                     3.623732914388    -7.072022352849    -2.235744763796
H                     5.743368165252    -3.566365029942    -2.763970042873
H                     4.889158013710     3.176160084333    -7.283011429323
H                     3.172792596360     3.566663432971    -7.187413576509
H                    -2.200974794161     5.877440963732    -1.664026430940
H                    -2.777362285092     4.662878531070    -2.802017498021
H                    -0.323335525592     4.412413120436    -0.984299092309
H                    -1.838212867570     3.536782341082    -0.804657531859
H                    -1.498507848228     6.398001867636    -4.025919310480
H                    -0.114129659899     6.168316521092    -2.965647971154
H                     2.481213217531     0.984648666774   -12.243214436375
H                     1.741043787074     0.953987435382   -10.572908984448
H                     2.935850706226    -1.200831210105   -10.042325760513
H                     3.696772408387    -1.214979720643   -11.706160766889
H                    -0.086241941520     2.115269978094    -1.893854951671
H                    -1.463443042219     2.361102304663    -2.966615502890
H                    -1.258931248264     4.072091673144    -4.902133216662
H                     0.242380778796     4.970896149157    -5.106824285271
H                     4.764834342235     1.023549372548   -11.236910827412
H                     1.164365910148     3.910906443234    -3.058437612805
H                     8.083207367575    -3.775214568869    -3.938214818402
H                     8.253844803157    -5.029922633735    -5.173622525662
H                     1.402116102596     3.058575886810    -6.304089184941
H                     2.447985254413     3.516372563453    -4.957240800029
H                     6.542862642069    -3.825163415280    -6.465787584452
H                     1.022759448559     1.544428989303    -3.898569084033
