
  -OEChem-05262117483D

 65 69  0     0  0  0  0  0  0999 V2000
   -4.5625    8.0173   -4.6189 C   0  0  0  0  0  0  0  0  0  0  0  0
   -2.0423    3.8832   -9.6225 C   0  0  0  0  0  0  0  0  0  0  0  0
   -4.7435    6.8559   -5.3694 C   0  0  0  0  0  0  0  0  0  0  0  0
   -0.9314    3.3335  -10.2595 C   0  0  0  0  0  0  0  0  0  0  0  0
   -1.2540    3.0477   -7.4958 C   0  0  0  0  0  0  0  0  0  0  0  0
   -4.7957    9.2556   -5.2269 C   0  0  0  0  0  0  0  0  0  0  0  0
   -5.3745    8.2641   -7.2030 C   0  0  0  0  0  0  0  0  0  0  0  0
   -2.2115    3.7546   -8.2358 C   0  0  0  0  0  0  0  0  0  0  0  0
   -5.1646    6.9732   -6.7006 C   0  0  0  0  0  0  0  0  0  0  0  0
    0.0453    2.6579   -9.5175 C   0  0  0  0  0  0  0  0  0  0  0  0
   -0.1209    2.5296   -8.1207 C   0  0  0  0  0  0  0  0  0  0  0  0
    1.8042    0.9742   -9.5725 C   0  0  0  0  0  0  0  0  0  0  0  0
   -3.4123    4.2736   -7.5030 C   0  0  0  0  0  0  0  0  0  0  0  0
    1.4226    2.0716   -6.1983 C   0  0  0  0  0  0  0  0  0  0  0  0
    1.3522    0.6141   -8.1653 C   0  0  0  0  0  0  0  0  0  0  0  0
   -2.2344    6.1804   -2.4388 C   0  0  0  0  0  0  0  0  0  0  0  0
   -1.5687    5.0548   -1.6352 C   0  0  0  0  0  0  0  0  0  0  0  0
   -1.3445    6.6250   -3.6068 C   0  0  0  0  0  0  0  0  0  0  0  0
    2.9701    2.9117  -11.7287 C   0  0  0  0  0  0  0  0  0  0  0  0
    1.8491    3.9228  -11.7651 C   0  0  0  0  0  0  0  0  0  0  0  0
   -1.1773    3.8807   -2.5425 C   0  0  0  0  0  0  0  0  0  0  0  0
   -0.9705    5.4393   -4.5067 C   0  0  0  0  0  0  0  0  0  0  0  0
    1.5546    2.4677  -11.4755 C   0  0  0  0  0  0  0  0  0  0  0  0
   -0.2787    4.3299   -3.7015 C   0  0  0  0  0  0  0  0  0  0  0  0
   -5.3918    5.7570   -7.5734 C   0  0  0  0  0  0  0  0  0  0  0  0
    1.0791    3.3973   -5.5338 C   0  0  0  0  0  0  0  0  0  0  0  0
   -5.1935    9.3903   -6.4994 N   0  0  0  0  0  0  0  0  0  0  0  0
    1.1889    2.0961  -10.1270 N   0  0  0  0  0  0  0  0  0  0  0  0
    0.8771    1.7890   -7.4398 N   0  0  0  0  0  0  0  0  0  0  0  0
   -4.1718    5.2056   -8.1630 N   0  0  0  0  0  0  0  0  0  0  0  0
    0.0249    3.1620   -4.5441 N   0  0  0  0  0  0  0  0  0  0  0  0
    2.6369    0.3143  -10.1741 O   0  0  0  0  0  0  0  0  0  0  0  0
   -3.7182    3.8625   -6.3796 O   0  0  0  0  0  0  0  0  0  0  0  0
    2.1798    1.2794   -5.6406 O   0  0  0  0  0  0  0  0  0  0  0  0
   -4.2497    7.9705   -3.5805 H   0  0  0  0  0  0  0  0  0  0  0  0
   -2.7989    4.3639  -10.2355 H   0  0  0  0  0  0  0  0  0  0  0  0
   -4.5620    5.8717   -4.9464 H   0  0  0  0  0  0  0  0  0  0  0  0
   -0.8257    3.4215  -11.3341 H   0  0  0  0  0  0  0  0  0  0  0  0
   -1.3939    2.9121   -6.4271 H   0  0  0  0  0  0  0  0  0  0  0  0
   -4.6590   10.1794   -4.6664 H   0  0  0  0  0  0  0  0  0  0  0  0
   -5.7155    8.3969   -8.2311 H   0  0  0  0  0  0  0  0  0  0  0  0
    0.5636   -0.1474   -8.2310 H   0  0  0  0  0  0  0  0  0  0  0  0
    2.1963    0.1848   -7.6298 H   0  0  0  0  0  0  0  0  0  0  0  0
   -2.4605    7.0308   -1.7838 H   0  0  0  0  0  0  0  0  0  0  0  0
   -3.1932    5.8161   -2.8318 H   0  0  0  0  0  0  0  0  0  0  0  0
   -0.6716    5.4474   -1.1373 H   0  0  0  0  0  0  0  0  0  0  0  0
   -2.2389    4.7043   -0.8420 H   0  0  0  0  0  0  0  0  0  0  0  0
   -1.8464    7.3945   -4.2021 H   0  0  0  0  0  0  0  0  0  0  0  0
   -0.4298    7.0847   -3.2074 H   0  0  0  0  0  0  0  0  0  0  0  0
    3.4280    2.5932  -12.6593 H   0  0  0  0  0  0  0  0  0  0  0  0
    3.6384    2.9264  -10.8751 H   0  0  0  0  0  0  0  0  0  0  0  0
    1.7679    4.6181  -10.9354 H   0  0  0  0  0  0  0  0  0  0  0  0
    1.5252    4.3179  -12.7234 H   0  0  0  0  0  0  0  0  0  0  0  0
   -0.6652    3.1067   -1.9556 H   0  0  0  0  0  0  0  0  0  0  0  0
   -2.0770    3.4182   -2.9675 H   0  0  0  0  0  0  0  0  0  0  0  0
   -1.8706    5.0201   -4.9709 H   0  0  0  0  0  0  0  0  0  0  0  0
   -0.3225    5.7902   -5.3178 H   0  0  0  0  0  0  0  0  0  0  0  0
    1.0728    1.8784  -12.2528 H   0  0  0  0  0  0  0  0  0  0  0  0
    0.6523    4.7503   -3.2729 H   0  0  0  0  0  0  0  0  0  0  0  0
   -5.8500    4.9562   -6.9907 H   0  0  0  0  0  0  0  0  0  0  0  0
   -6.0717    6.0092   -8.3931 H   0  0  0  0  0  0  0  0  0  0  0  0
    0.7390    4.1343   -6.2626 H   0  0  0  0  0  0  0  0  0  0  0  0
    2.0169    3.7647   -5.0869 H   0  0  0  0  0  0  0  0  0  0  0  0
   -3.7613    5.7042   -8.9404 H   0  0  0  0  0  0  0  0  0  0  0  0
    0.3357    2.4006   -3.9412 H   0  0  0  0  0  0  0  0  0  0  0  0
  1  3  1  0  0  0  0
  1  6  2  0  0  0  0
  1 35  1  0  0  0  0
  2  4  2  0  0  0  0
  2  8  1  0  0  0  0
  2 36  1  0  0  0  0
  3  9  2  0  0  0  0
  3 37  1  0  0  0  0
  4 10  1  0  0  0  0
  4 38  1  0  0  0  0
  5  8  2  0  0  0  0
  5 11  1  0  0  0  0
  5 39  1  0  0  0  0
  6 27  1  0  0  0  0
  6 40  1  0  0  0  0
  7  9  1  0  0  0  0
  7 27  2  0  0  0  0
  7 41  1  0  0  0  0
  8 13  1  0  0  0  0
  9 25  1  0  0  0  0
 10 11  2  0  0  0  0
 10 28  1  0  0  0  0
 11 29  1  0  0  0  0
 12 15  1  0  0  0  0
 12 28  1  0  0  0  0
 12 32  2  0  0  0  0
 13 30  1  0  0  0  0
 13 33  2  0  0  0  0
 14 26  1  0  0  0  0
 14 29  1  0  0  0  0
 14 34  2  0  0  0  0
 15 29  1  0  0  0  0
 15 42  1  0  0  0  0
 15 43  1  0  0  0  0
 16 17  1  0  0  0  0
 16 18  1  0  0  0  0
 16 44  1  0  0  0  0
 16 45  1  0  0  0  0
 17 21  1  0  0  0  0
 17 46  1  0  0  0  0
 17 47  1  0  0  0  0
 18 22  1  0  0  0  0
 18 48  1  0  0  0  0
 18 49  1  0  0  0  0
 19 20  1  0  0  0  0
 19 23  1  0  0  0  0
 19 50  1  0  0  0  0
 19 51  1  0  0  0  0
 20 23  1  0  0  0  0
 20 52  1  0  0  0  0
 20 53  1  0  0  0  0
 21 24  1  0  0  0  0
 21 54  1  0  0  0  0
 21 55  1  0  0  0  0
 22 24  1  0  0  0  0
 22 56  1  0  0  0  0
 22 57  1  0  0  0  0
 23 28  1  0  0  0  0
 23 58  1  0  0  0  0
 24 31  1  0  0  0  0
 24 59  1  0  0  0  0
 25 30  1  0  0  0  0
 25 60  1  0  0  0  0
 25 61  1  0  0  0  0
 26 31  1  0  0  0  0
 26 62  1  0  0  0  0
 26 63  1  0  0  0  0
 30 64  1  0  0  0  0
 31 65  1  0  0  0  0
M  END
$$$$
