32
0 1 C13ClFH13N3O
C                     1.691704140051    -1.434289002775    -0.187365420433
C                     2.968658608475    -1.326993089749     1.849728864363
C                     0.594307712038    -0.864875554178     0.462923758218
C                     1.881599879527    -0.758608726782     2.514326476197
C                     6.062947305247    -4.210042261056    -3.654468288799
C                     5.798654726936    -4.704148918853    -1.627951129296
C                     2.893927176180    -1.678458892678     0.492672047794
C                     0.695779463641    -0.531524402647     1.813473240293
C                     4.485610441538    -0.094426185676    -1.659628978903
C                     5.073692695907     0.230727714522    -0.289913497316
C                     5.016413311058    -1.183330271977    -0.781285758878
C                     3.699864745377    -3.307829222335    -1.259672964210
C                     4.131285658184    -2.279878682926    -0.181885557579
N                     6.618442763482    -4.940848117733    -2.642327156688
N                     4.958154673196    -3.549712309965    -3.329984258156
N                     4.794492444139    -3.882449658266    -2.015340481721
O                     4.952341359906    -2.944141346753     0.790056109130
F                     6.245053958356    -1.688261514206    -1.175519462886
Cl                   -0.677564284449     0.180970753059     2.637227269530
H                     1.583852215238    -1.676256816967    -1.239131543166
H                     3.897964313858    -1.485053909238     2.387347128890
H                    -0.330228820776    -0.683155279809    -0.075786966201
H                     1.955551336363    -0.489074002602     3.563239153699
H                     6.476194632190    -4.166968262712    -4.653967678977
H                     5.901218451588    -5.074510523411    -0.617914942419
H                     3.413393746905     0.003471847011    -1.791944861417
H                     5.083682609125     0.131832632594    -2.535898914367
H                     6.063958049595     0.673711503931    -0.265274265539
H                     4.400266196238     0.547390632994     0.497864842596
H                     3.133125980658    -4.106522773569    -0.767956658084
H                     3.055315710683    -2.845501666913    -2.004106832720
H                     4.382360135913    -3.558409168086     1.282531308294
