
  -OEChem-05262117483D

 65 69  0     0  0  0  0  0  0999 V2000
    5.2196   -7.2354   -3.6866 C   0  0  0  0  0  0  0  0  0  0  0  0
    6.2258   -1.5331   -7.7383 C   0  0  0  0  0  0  0  0  0  0  0  0
    6.2490   -6.5344   -4.3200 C   0  0  0  0  0  0  0  0  0  0  0  0
    5.6109   -0.7178   -8.6866 C   0  0  0  0  0  0  0  0  0  0  0  0
    5.1769   -0.2761   -5.9578 C   0  0  0  0  0  0  0  0  0  0  0  0
    4.4346   -6.5583   -2.7503 C   0  0  0  0  0  0  0  0  0  0  0  0
    5.6086   -4.6108   -3.0397 C   0  0  0  0  0  0  0  0  0  0  0  0
    6.0084   -1.3240   -6.3687 C   0  0  0  0  0  0  0  0  0  0  0  0
    6.4570   -5.1896   -4.0004 C   0  0  0  0  0  0  0  0  0  0  0  0
    4.7475    0.3074   -8.2792 C   0  0  0  0  0  0  0  0  0  0  0  0
    4.5395    0.5248   -6.9011 C   0  0  0  0  0  0  0  0  0  0  0  0
    3.6889    2.4143   -8.8879 C   0  0  0  0  0  0  0  0  0  0  0  0
    6.6601   -2.1475   -5.3003 C   0  0  0  0  0  0  0  0  0  0  0  0
    2.7110    1.4912   -5.5822 C   0  0  0  0  0  0  0  0  0  0  0  0
    3.8761    2.7734   -7.4181 C   0  0  0  0  0  0  0  0  0  0  0  0
   -1.8718    5.0781   -2.3385 C   0  0  0  0  0  0  0  0  0  0  0  0
   -1.1590    3.9731   -1.5462 C   0  0  0  0  0  0  0  0  0  0  0  0
   -0.9607    5.6477   -3.4347 C   0  0  0  0  0  0  0  0  0  0  0  0
    2.5697    0.6659  -11.2098 C   0  0  0  0  0  0  0  0  0  0  0  0
    3.2865   -0.6242  -10.8925 C   0  0  0  0  0  0  0  0  0  0  0  0
   -0.6266    2.8737   -2.4750 C   0  0  0  0  0  0  0  0  0  0  0  0
   -0.4298    4.5395   -4.3550 C   0  0  0  0  0  0  0  0  0  0  0  0
    3.9448    0.7051  -10.5972 C   0  0  0  0  0  0  0  0  0  0  0  0
    0.2941    3.4413   -3.5619 C   0  0  0  0  0  0  0  0  0  0  0  0
    7.5385   -4.3692   -4.6737 C   0  0  0  0  0  0  0  0  0  0  0  0
    1.8064    2.7032   -5.3485 C   0  0  0  0  0  0  0  0  0  0  0  0
    4.6191   -5.2699   -2.4241 N   0  0  0  0  0  0  0  0  0  0  0  0
    4.0658    1.1210   -9.2174 N   0  0  0  0  0  0  0  0  0  0  0  0
    3.6906    1.6111   -6.5559 N   0  0  0  0  0  0  0  0  0  0  0  0
    7.0153   -3.4265   -5.6642 N   0  0  0  0  0  0  0  0  0  0  0  0
    0.7290    2.3545   -4.4424 N   0  0  0  0  0  0  0  0  0  0  0  0
    3.2522    3.2178   -9.6996 O   0  0  0  0  0  0  0  0  0  0  0  0
    6.8756   -1.6981   -4.1735 O   0  0  0  0  0  0  0  0  0  0  0  0
    2.5907    0.4709   -4.9129 O   0  0  0  0  0  0  0  0  0  0  0  0
    5.0297   -8.2820   -3.9080 H   0  0  0  0  0  0  0  0  0  0  0  0
    6.9129   -2.3035   -8.0764 H   0  0  0  0  0  0  0  0  0  0  0  0
    6.8862   -7.0299   -5.0507 H   0  0  0  0  0  0  0  0  0  0  0  0
    5.7979   -0.8767   -9.7420 H   0  0  0  0  0  0  0  0  0  0  0  0
    5.0234   -0.1056   -4.9004 H   0  0  0  0  0  0  0  0  0  0  0  0
    3.6237   -7.0720   -2.2357 H   0  0  0  0  0  0  0  0  0  0  0  0
    5.7434   -3.5664   -2.7640 H   0  0  0  0  0  0  0  0  0  0  0  0
    4.8892    3.1762   -7.2830 H   0  0  0  0  0  0  0  0  0  0  0  0
    3.1728    3.5667   -7.1874 H   0  0  0  0  0  0  0  0  0  0  0  0
   -2.2010    5.8774   -1.6640 H   0  0  0  0  0  0  0  0  0  0  0  0
   -2.7774    4.6629   -2.8020 H   0  0  0  0  0  0  0  0  0  0  0  0
   -0.3233    4.4124   -0.9843 H   0  0  0  0  0  0  0  0  0  0  0  0
   -1.8382    3.5368   -0.8047 H   0  0  0  0  0  0  0  0  0  0  0  0
   -1.4985    6.3980   -4.0259 H   0  0  0  0  0  0  0  0  0  0  0  0
   -0.1141    6.1683   -2.9656 H   0  0  0  0  0  0  0  0  0  0  0  0
    2.4812    0.9846  -12.2432 H   0  0  0  0  0  0  0  0  0  0  0  0
    1.7410    0.9540  -10.5729 H   0  0  0  0  0  0  0  0  0  0  0  0
    2.9359   -1.2008  -10.0423 H   0  0  0  0  0  0  0  0  0  0  0  0
    3.6968   -1.2150  -11.7062 H   0  0  0  0  0  0  0  0  0  0  0  0
   -0.0862    2.1153   -1.8939 H   0  0  0  0  0  0  0  0  0  0  0  0
   -1.4634    2.3611   -2.9666 H   0  0  0  0  0  0  0  0  0  0  0  0
   -1.2589    4.0721   -4.9021 H   0  0  0  0  0  0  0  0  0  0  0  0
    0.2424    4.9709   -5.1068 H   0  0  0  0  0  0  0  0  0  0  0  0
    4.7648    1.0235  -11.2369 H   0  0  0  0  0  0  0  0  0  0  0  0
    1.1644    3.9109   -3.0584 H   0  0  0  0  0  0  0  0  0  0  0  0
    8.0832   -3.7752   -3.9382 H   0  0  0  0  0  0  0  0  0  0  0  0
    8.2538   -5.0299   -5.1736 H   0  0  0  0  0  0  0  0  0  0  0  0
    1.4021    3.0586   -6.3041 H   0  0  0  0  0  0  0  0  0  0  0  0
    2.4480    3.5164   -4.9572 H   0  0  0  0  0  0  0  0  0  0  0  0
    6.5429   -3.8252   -6.4658 H   0  0  0  0  0  0  0  0  0  0  0  0
    1.0228    1.5444   -3.8986 H   0  0  0  0  0  0  0  0  0  0  0  0
  1  3  1  0  0  0  0
  1  6  2  0  0  0  0
  1 35  1  0  0  0  0
  2  4  2  0  0  0  0
  2  8  1  0  0  0  0
  2 36  1  0  0  0  0
  3  9  2  0  0  0  0
  3 37  1  0  0  0  0
  4 10  1  0  0  0  0
  4 38  1  0  0  0  0
  5  8  2  0  0  0  0
  5 11  1  0  0  0  0
  5 39  1  0  0  0  0
  6 27  1  0  0  0  0
  6 40  1  0  0  0  0
  7  9  1  0  0  0  0
  7 27  2  0  0  0  0
  7 41  1  0  0  0  0
  8 13  1  0  0  0  0
  9 25  1  0  0  0  0
 10 11  2  0  0  0  0
 10 28  1  0  0  0  0
 11 29  1  0  0  0  0
 12 15  1  0  0  0  0
 12 28  1  0  0  0  0
 12 32  2  0  0  0  0
 13 30  1  0  0  0  0
 13 33  2  0  0  0  0
 14 26  1  0  0  0  0
 14 29  1  0  0  0  0
 14 34  2  0  0  0  0
 15 29  1  0  0  0  0
 15 42  1  0  0  0  0
 15 43  1  0  0  0  0
 16 17  1  0  0  0  0
 16 18  1  0  0  0  0
 16 44  1  0  0  0  0
 16 45  1  0  0  0  0
 17 21  1  0  0  0  0
 17 46  1  0  0  0  0
 17 47  1  0  0  0  0
 18 22  1  0  0  0  0
 18 48  1  0  0  0  0
 18 49  1  0  0  0  0
 19 20  1  0  0  0  0
 19 23  1  0  0  0  0
 19 50  1  0  0  0  0
 19 51  1  0  0  0  0
 20 23  1  0  0  0  0
 20 52  1  0  0  0  0
 20 53  1  0  0  0  0
 21 24  1  0  0  0  0
 21 54  1  0  0  0  0
 21 55  1  0  0  0  0
 22 24  1  0  0  0  0
 22 56  1  0  0  0  0
 22 57  1  0  0  0  0
 23 28  1  0  0  0  0
 23 58  1  0  0  0  0
 24 31  1  0  0  0  0
 24 59  1  0  0  0  0
 25 30  1  0  0  0  0
 25 60  1  0  0  0  0
 25 61  1  0  0  0  0
 26 31  1  0  0  0  0
 26 62  1  0  0  0  0
 26 63  1  0  0  0  0
 30 64  1  0  0  0  0
 31 65  1  0  0  0  0
M  END
$$$$
